* SPICE NETLIST
***************************************

.SUBCKT M2_M1_via
** N=1 EP=0 IP=0 FDC=0
.ENDS
***************************************
.SUBCKT ICV_1
** N=1 EP=0 IP=2 FDC=0
.ENDS
***************************************
.SUBCKT NAND2 A gnd! B OUT vdd!
** N=6 EP=5 IP=0 FDC=4
M0 6 A gnd! gnd! NMOS_VTL L=5e-08 W=1.8e-07 AD=2.52e-14 AS=1.89e-14 PD=6.4e-07 PS=5.7e-07 $X=210 $Y=-360 $D=1
M1 OUT B 6 gnd! NMOS_VTL L=5e-08 W=1.8e-07 AD=1.935e-14 AS=2.52e-14 PD=5.75e-07 PS=6.4e-07 $X=590 $Y=-360 $D=1
M2 OUT A vdd! vdd! PMOS_VTL L=5e-08 W=1.8e-07 AD=2.52e-14 AS=1.89e-14 PD=6.4e-07 PS=5.7e-07 $X=210 $Y=670 $D=0
M3 vdd! B OUT vdd! PMOS_VTL L=5e-08 W=1.8e-07 AD=1.89e-14 AS=2.52e-14 PD=5.7e-07 PS=6.4e-07 $X=590 $Y=670 $D=0
.ENDS
***************************************
.SUBCKT SP_MAJ IN0 IN1 IN2 OUT gnd! vdd!
** N=10 EP=6 IP=5 FDC=13
M0 7 IN1 gnd! gnd! NMOS_VTL L=5e-08 W=1.8e-07 AD=2.52e-14 AS=2.025e-14 PD=6.4e-07 PS=5.85e-07 $X=675 $Y=-190 $D=1
M1 gnd! IN2 7 gnd! NMOS_VTL L=5e-08 W=1.8e-07 AD=2.745e-14 AS=2.52e-14 PD=6.65e-07 PS=6.4e-07 $X=1055 $Y=-190 $D=1
M2 5 IN0 7 gnd! NMOS_VTL L=5e-08 W=1.8e-07 AD=2.025e-14 AS=2.115e-14 PD=5.85e-07 PS=5.95e-07 $X=1925 $Y=-190 $D=1
M3 10 IN2 gnd! gnd! NMOS_VTL L=5e-08 W=1.8e-07 AD=2.52e-14 AS=2.745e-14 PD=6.4e-07 PS=6.65e-07 $X=2745 $Y=-190 $D=1
M4 6 IN1 10 gnd! NMOS_VTL L=5e-08 W=1.8e-07 AD=2.025e-14 AS=2.52e-14 PD=5.85e-07 PS=6.4e-07 $X=3125 $Y=-190 $D=1
M5 5 IN0 vdd! vdd! PMOS_VTL L=5e-08 W=1.8e-07 AD=2.025e-14 AS=2.025e-14 PD=5.85e-07 PS=5.85e-07 $X=675 $Y=2740 $D=0
M6 vdd! OUT 5 vdd! PMOS_VTL L=5e-08 W=9e-08 AD=1.0125e-14 AS=1.0125e-14 PD=4.05e-07 PS=4.05e-07 $X=1495 $Y=2740 $D=0
M7 6 OUT vdd! vdd! PMOS_VTL L=5e-08 W=9e-08 AD=1.0125e-14 AS=1.0125e-14 PD=4.05e-07 PS=4.05e-07 $X=2305 $Y=2740 $D=0
M8 vdd! IN1 6 vdd! PMOS_VTL L=5e-08 W=1.8e-07 AD=2.025e-14 AS=2.025e-14 PD=5.85e-07 PS=5.85e-07 $X=3125 $Y=2740 $D=0
X9 5 gnd! 6 OUT vdd! NAND2 $T=4925 170 0 0 $X=4475 $Y=-475
.ENDS
***************************************
.SUBCKT SP_FA_DR vdd! A B C A_b gnd! B_b C_b S S_b Co Co_b
** N=22 EP=12 IP=28 FDC=54
M0 14 A 18 gnd! NMOS_VTL L=5e-08 W=2.7e-07 AD=5.6025e-14 AS=4.1175e-14 PD=9.55e-07 PS=8.45e-07 $X=19835 $Y=6770 $D=1
M1 9 A_b 14 gnd! NMOS_VTL L=5e-08 W=2.7e-07 AD=4.185e-14 AS=5.6025e-14 PD=8.5e-07 PS=9.55e-07 $X=19835 $Y=7285 $D=1
M2 19 C_b gnd! gnd! NMOS_VTL L=5e-08 W=2.7e-07 AD=4.7925e-14 AS=3.4425e-14 PD=8.95e-07 PS=7.95e-07 $X=19835 $Y=8210 $D=1
M3 14 B 19 gnd! NMOS_VTL L=5e-08 W=2.7e-07 AD=5.1975e-14 AS=4.7925e-14 PD=9.25e-07 PS=8.95e-07 $X=19835 $Y=8665 $D=1
M4 20 B_b 14 gnd! NMOS_VTL L=5e-08 W=2.7e-07 AD=4.995e-14 AS=5.1975e-14 PD=9.1e-07 PS=9.25e-07 $X=19835 $Y=9150 $D=1
M5 gnd! C 20 gnd! NMOS_VTL L=5e-08 W=2.7e-07 AD=3.0375e-14 AS=4.995e-14 PD=7.65e-07 PS=9.1e-07 $X=19835 $Y=9620 $D=1
M6 15 A_b 13 gnd! NMOS_VTL L=5e-08 W=2.7e-07 AD=5.6025e-14 AS=4.1175e-14 PD=9.55e-07 PS=8.45e-07 $X=19835 $Y=10800 $D=1
M7 11 A 15 gnd! NMOS_VTL L=5e-08 W=2.7e-07 AD=4.185e-14 AS=5.6025e-14 PD=8.5e-07 PS=9.55e-07 $X=19835 $Y=11315 $D=1
M8 21 C gnd! gnd! NMOS_VTL L=5e-08 W=2.7e-07 AD=4.7925e-14 AS=3.4425e-14 PD=8.95e-07 PS=7.95e-07 $X=19835 $Y=12240 $D=1
M9 15 B 21 gnd! NMOS_VTL L=5e-08 W=2.7e-07 AD=5.1975e-14 AS=4.7925e-14 PD=9.25e-07 PS=8.95e-07 $X=19835 $Y=12695 $D=1
M10 22 B_b 15 gnd! NMOS_VTL L=5e-08 W=2.7e-07 AD=4.995e-14 AS=5.1975e-14 PD=9.1e-07 PS=9.25e-07 $X=19835 $Y=13180 $D=1
M11 gnd! C_b 22 gnd! NMOS_VTL L=5e-08 W=2.7e-07 AD=3.0375e-14 AS=4.995e-14 PD=7.65e-07 PS=9.1e-07 $X=19835 $Y=13650 $D=1
M12 vdd! A 18 vdd! PMOS_VTL L=5e-08 W=1.8e-07 AD=2.025e-14 AS=2.025e-14 PD=5.85e-07 PS=5.85e-07 $X=14680 $Y=6770 $D=0
M13 vdd! A_b 9 vdd! PMOS_VTL L=5e-08 W=1.8e-07 AD=2.025e-14 AS=2.025e-14 PD=5.85e-07 PS=5.85e-07 $X=14680 $Y=9150 $D=0
M14 vdd! A_b 13 vdd! PMOS_VTL L=5e-08 W=1.8e-07 AD=2.025e-14 AS=2.025e-14 PD=5.85e-07 PS=5.85e-07 $X=14680 $Y=10800 $D=0
M15 vdd! A 11 vdd! PMOS_VTL L=5e-08 W=1.8e-07 AD=2.025e-14 AS=2.025e-14 PD=5.85e-07 PS=5.85e-07 $X=14680 $Y=13135 $D=0
M16 18 S_b vdd! vdd! PMOS_VTL L=5e-08 W=9e-08 AD=1.0125e-14 AS=1.0125e-14 PD=4.05e-07 PS=4.05e-07 $X=14860 $Y=5950 $D=0
M17 9 S vdd! vdd! PMOS_VTL L=5e-08 W=9e-08 AD=1.0125e-14 AS=1.0125e-14 PD=4.05e-07 PS=4.05e-07 $X=14860 $Y=8330 $D=0
M18 13 S_b vdd! vdd! PMOS_VTL L=5e-08 W=9e-08 AD=1.0125e-14 AS=1.0125e-14 PD=4.05e-07 PS=4.05e-07 $X=14860 $Y=9980 $D=0
M19 11 S vdd! vdd! PMOS_VTL L=5e-08 W=9e-08 AD=1.0125e-14 AS=1.0125e-14 PD=4.05e-07 PS=4.05e-07 $X=14860 $Y=12315 $D=0
X26 11 gnd! 9 S vdd! NAND2 $T=15505 3680 1 270 $X=14175 $Y=2665
X27 18 gnd! 13 S_b vdd! NAND2 $T=20055 3680 1 270 $X=18725 $Y=2665
X28 A B C Co gnd! vdd! SP_MAJ $T=7925 12160 1 270 $X=4320 $Y=5760
X29 A_b B_b C_b Co_b gnd! vdd! SP_MAJ $T=12595 12160 1 270 $X=8990 $Y=5760
.ENDS
***************************************
.SUBCKT ICV_2
** N=1 EP=0 IP=2 FDC=0
.ENDS
***************************************
.SUBCKT INV in gnd! vdd! out
** N=4 EP=4 IP=0 FDC=2
M0 out in gnd! gnd! NMOS_VTL L=5e-08 W=9e-08 AD=9.45e-15 AS=9.45e-15 PD=3.9e-07 PS=3.9e-07 $X=210 $Y=-180 $D=1
M1 out in vdd! vdd! PMOS_VTL L=5e-08 W=1.8e-07 AD=1.89e-14 AS=1.89e-14 PD=5.7e-07 PS=5.7e-07 $X=210 $Y=800 $D=0
.ENDS
***************************************
.SUBCKT SP_AND_DR out !A out_b !B gnd! vdd! B A
** N=12 EP=8 IP=9 FDC=16
M0 12 B gnd! gnd! NMOS_VTL L=5e-08 W=1.8e-07 AD=2.52e-14 AS=2.025e-14 PD=6.4e-07 PS=5.85e-07 $X=675 $Y=110 $D=1
M1 1 A 12 gnd! NMOS_VTL L=5e-08 W=1.8e-07 AD=2.745e-14 AS=2.52e-14 PD=6.65e-07 PS=6.4e-07 $X=1055 $Y=110 $D=1
M2 4 !A gnd! gnd! NMOS_VTL L=5e-08 W=9e-08 AD=1.0125e-14 AS=1.0125e-14 PD=4.05e-07 PS=4.05e-07 $X=2305 $Y=110 $D=1
M3 11 !B gnd! gnd! NMOS_VTL L=5e-08 W=9e-08 AD=1.0125e-14 AS=1.0125e-14 PD=4.05e-07 PS=4.05e-07 $X=3935 $Y=110 $D=1
M4 1 A vdd! vdd! PMOS_VTL L=5e-08 W=1.8e-07 AD=2.025e-14 AS=2.025e-14 PD=5.85e-07 PS=5.85e-07 $X=675 $Y=3505 $D=0
M5 vdd! out 1 vdd! PMOS_VTL L=5e-08 W=9e-08 AD=1.0125e-14 AS=1.0125e-14 PD=4.05e-07 PS=4.05e-07 $X=1495 $Y=3505 $D=0
M6 4 !A vdd! vdd! PMOS_VTL L=5e-08 W=1.8e-07 AD=2.025e-14 AS=2.025e-14 PD=5.85e-07 PS=5.85e-07 $X=2305 $Y=3505 $D=0
M7 vdd! out_b 4 vdd! PMOS_VTL L=5e-08 W=9e-08 AD=1.0125e-14 AS=1.0125e-14 PD=4.05e-07 PS=4.05e-07 $X=3125 $Y=3505 $D=0
M8 11 !B vdd! vdd! PMOS_VTL L=5e-08 W=1.8e-07 AD=2.025e-14 AS=2.025e-14 PD=5.85e-07 PS=5.85e-07 $X=3935 $Y=3505 $D=0
M9 vdd! out_b 11 vdd! PMOS_VTL L=5e-08 W=9e-08 AD=1.0125e-14 AS=1.0125e-14 PD=4.05e-07 PS=4.05e-07 $X=4755 $Y=3505 $D=0
X10 11 gnd! 4 out_b vdd! NAND2 $T=6255 250 0 0 $X=5805 $Y=-395
X11 1 gnd! vdd! out INV $T=6065 2910 0 0 $X=5615 $Y=2395
.ENDS
***************************************
.SUBCKT SP_OR_DR out_b A out B gnd! vdd! !B !A
** N=12 EP=8 IP=9 FDC=16
M0 12 !B gnd! gnd! NMOS_VTL L=5e-08 W=1.8e-07 AD=2.52e-14 AS=2.025e-14 PD=6.4e-07 PS=5.85e-07 $X=675 $Y=110 $D=1
M1 1 !A 12 gnd! NMOS_VTL L=5e-08 W=1.8e-07 AD=2.745e-14 AS=2.52e-14 PD=6.65e-07 PS=6.4e-07 $X=1055 $Y=110 $D=1
M2 4 A gnd! gnd! NMOS_VTL L=5e-08 W=9e-08 AD=1.0125e-14 AS=1.0125e-14 PD=4.05e-07 PS=4.05e-07 $X=2305 $Y=110 $D=1
M3 11 B gnd! gnd! NMOS_VTL L=5e-08 W=9e-08 AD=1.0125e-14 AS=1.0125e-14 PD=4.05e-07 PS=4.05e-07 $X=3935 $Y=110 $D=1
M4 1 !A vdd! vdd! PMOS_VTL L=5e-08 W=1.8e-07 AD=2.025e-14 AS=2.025e-14 PD=5.85e-07 PS=5.85e-07 $X=675 $Y=3505 $D=0
M5 vdd! out_b 1 vdd! PMOS_VTL L=5e-08 W=9e-08 AD=1.0125e-14 AS=1.0125e-14 PD=4.05e-07 PS=4.05e-07 $X=1495 $Y=3505 $D=0
M6 4 A vdd! vdd! PMOS_VTL L=5e-08 W=1.8e-07 AD=2.025e-14 AS=2.025e-14 PD=5.85e-07 PS=5.85e-07 $X=2305 $Y=3505 $D=0
M7 vdd! out 4 vdd! PMOS_VTL L=5e-08 W=9e-08 AD=1.0125e-14 AS=1.0125e-14 PD=4.05e-07 PS=4.05e-07 $X=3125 $Y=3505 $D=0
M8 11 B vdd! vdd! PMOS_VTL L=5e-08 W=1.8e-07 AD=2.025e-14 AS=2.025e-14 PD=5.85e-07 PS=5.85e-07 $X=3935 $Y=3505 $D=0
M9 vdd! out 11 vdd! PMOS_VTL L=5e-08 W=9e-08 AD=1.0125e-14 AS=1.0125e-14 PD=4.05e-07 PS=4.05e-07 $X=4755 $Y=3505 $D=0
X10 11 gnd! 4 out vdd! NAND2 $T=6255 250 0 0 $X=5805 $Y=-395
X11 1 gnd! vdd! out_b INV $T=6065 2910 0 0 $X=5615 $Y=2395
.ENDS
***************************************
.SUBCKT SP_XOR_DR A P !A !P B gnd! vdd! !B
** N=14 EP=8 IP=10 FDC=22
M0 1 !B gnd! gnd! NMOS_VTL L=5e-08 W=1.8e-07 AD=2.52e-14 AS=2.025e-14 PD=6.4e-07 PS=5.85e-07 $X=675 $Y=110 $D=1
M1 3 A 1 gnd! NMOS_VTL L=5e-08 W=1.8e-07 AD=2.745e-14 AS=2.52e-14 PD=6.65e-07 PS=6.4e-07 $X=1055 $Y=110 $D=1
M2 6 !A 1 gnd! NMOS_VTL L=5e-08 W=1.8e-07 AD=2.745e-14 AS=5.445e-14 PD=6.65e-07 PS=9.65e-07 $X=2685 $Y=110 $D=1
M3 9 B gnd! gnd! NMOS_VTL L=5e-08 W=1.8e-07 AD=2.52e-14 AS=2.025e-14 PD=6.4e-07 PS=5.85e-07 $X=3955 $Y=110 $D=1
M4 10 !A 9 gnd! NMOS_VTL L=5e-08 W=1.8e-07 AD=2.745e-14 AS=2.52e-14 PD=6.65e-07 PS=6.4e-07 $X=4335 $Y=110 $D=1
M5 14 A 9 gnd! NMOS_VTL L=5e-08 W=1.8e-07 AD=2.745e-14 AS=5.445e-14 PD=6.65e-07 PS=9.65e-07 $X=5965 $Y=110 $D=1
M6 3 A vdd! vdd! PMOS_VTL L=5e-08 W=1.8e-07 AD=2.025e-14 AS=2.025e-14 PD=5.85e-07 PS=5.85e-07 $X=675 $Y=3505 $D=0
M7 vdd! P 3 vdd! PMOS_VTL L=5e-08 W=9e-08 AD=1.0125e-14 AS=1.0125e-14 PD=4.05e-07 PS=4.05e-07 $X=1495 $Y=3505 $D=0
M8 6 !A vdd! vdd! PMOS_VTL L=5e-08 W=1.8e-07 AD=2.025e-14 AS=2.025e-14 PD=5.85e-07 PS=5.85e-07 $X=2305 $Y=3505 $D=0
M9 vdd! !P 6 vdd! PMOS_VTL L=5e-08 W=9e-08 AD=1.0125e-14 AS=1.0125e-14 PD=4.05e-07 PS=4.05e-07 $X=3125 $Y=3505 $D=0
M10 10 !A vdd! vdd! PMOS_VTL L=5e-08 W=1.8e-07 AD=2.025e-14 AS=2.025e-14 PD=5.85e-07 PS=5.85e-07 $X=3955 $Y=3505 $D=0
M11 vdd! P 10 vdd! PMOS_VTL L=5e-08 W=9e-08 AD=1.0125e-14 AS=1.0125e-14 PD=4.05e-07 PS=4.05e-07 $X=4775 $Y=3505 $D=0
M12 14 A vdd! vdd! PMOS_VTL L=5e-08 W=1.8e-07 AD=2.025e-14 AS=2.025e-14 PD=5.85e-07 PS=5.85e-07 $X=5585 $Y=3505 $D=0
M13 vdd! !P 14 vdd! PMOS_VTL L=5e-08 W=9e-08 AD=1.0125e-14 AS=1.0125e-14 PD=4.05e-07 PS=4.05e-07 $X=6405 $Y=3505 $D=0
X14 14 gnd! 6 !P vdd! NAND2 $T=7820 250 0 0 $X=7370 $Y=-395
X15 3 gnd! 10 P vdd! NAND2 $T=7820 3040 0 0 $X=7370 $Y=2395
.ENDS
***************************************
.SUBCKT PPG_Cell_v1 POS_b POS TWO_b TWO Xj-1 Xj-1_b ONE_b Xj_b Xj vdd! PPG PPG_b ONE gnd!
** N=20 EP=14 IP=32 FDC=70
X0 11 TWO_b 12 Xj-1_b gnd! vdd! Xj-1 TWO SP_AND_DR $T=6270 10385 0 0 $X=6265 $Y=9990
X1 13 ONE_b 19 Xj_b gnd! vdd! Xj ONE SP_AND_DR $T=6270 16575 0 0 $X=6265 $Y=16180
X2 14 11 15 13 gnd! vdd! 19 12 SP_OR_DR $T=15980 16575 0 0 $X=15975 $Y=16180
X3 POS PPG POS_b PPG_b 15 gnd! vdd! 14 SP_XOR_DR $T=25595 16575 0 0 $X=25595 $Y=16180
.ENDS
***************************************
.SUBCKT ICV_3 1 2 3 4 5 6 7 8 9 10 11 12 13 14 15 16 17 18
** N=18 EP=18 IP=28 FDC=140
X0 10 11 8 9 5 4 6 2 3 12 13 14 7 1 PPG_Cell_v1 $T=0 0 0 0 $X=1100 $Y=9990
X1 10 11 8 9 16 15 6 4 5 12 17 18 7 1 PPG_Cell_v1 $T=0 11630 0 0 $X=1100 $Y=21620
.ENDS
***************************************
.SUBCKT ICV_4 1 2 3 4 5 6 7 8 9 10 11 12 13 14 15 16 17 18 19 20
+ 21 22 23 24 25 26
** N=26 EP=26 IP=36 FDC=280
X0 1 2 3 11 12 4 5 6 7 8 9 10 15 16 13 14 17 18 ICV_3 $T=0 0 0 0 $X=1100 $Y=9990
X1 1 13 14 19 20 4 5 6 7 8 9 10 23 24 21 22 25 26 ICV_3 $T=0 23230 0 0 $X=1100 $Y=33220
.ENDS
***************************************
.SUBCKT PPG_Blk_v1 gnd! VDD_PC GND_PC PPGi_SE ONE_b ONE TWO_b TWO Yj+1_b PPGi_SE_b Yj+1 vdd! X15_b X15 PPGi+16 PPGi+16_b X14_b X14 PPGi+15 PPGi+15_b
+ X13_b X13 PPGi+14 PPGi+14_b X12_b X12 PPGi+13 PPGi+13_b X11_b X11 PPGi+12 PPGi+12_b X10_b X10 PPGi+11 PPGi+11_b X9_b X9 PPGi+10 PPGi+10_b
+ X8_b X8 PPGi+9 PPGi+9_b PPGi+8 PPGi+8_b PPGi+7 PPGi+7_b PPGi+6 PPGi+6_b PPGi+5 PPGi+5_b PPGi+4 PPGi+4_b PPGi+3 PPGi+3_b PPGi+2 PPGi+2_b PPGi+1 PPGi+1_b
+ X7_b PPGi PPGi_b X7 X6_b X6 X5_b X5 X4_b X4 X3_b X3 X2_b X2 X1_b X1 X0_b X0
** N=78 EP=78 IP=138 FDC=1260
X6 Yj+1_b Yj+1 TWO_b TWO GND_PC VDD_PC ONE_b VDD_PC GND_PC vdd! PPGi_SE PPGi_SE_b ONE gnd! PPG_Cell_v1 $T=23990 70620 0 270 $X=33980 $Y=32190
X7 Yj+1_b Yj+1 TWO_b TWO GND_PC VDD_PC ONE_b X0_b X0 vdd! PPGi PPGi_b ONE gnd! PPG_Cell_v1 $T=221505 70620 0 270 $X=231495 $Y=32190
X8 gnd! VDD_PC GND_PC ONE_b ONE TWO_b TWO Yj+1_b Yj+1 vdd! X15_b X15 X14_b X14 PPGi+16 PPGi+16_b PPGi+15 PPGi+15_b X13_b X13
+ X12_b X12 PPGi+14 PPGi+14_b PPGi+13 PPGi+13_b
+ ICV_4 $T=35625 70620 0 270 $X=45615 $Y=32190
X9 gnd! X12_b X12 ONE_b ONE TWO_b TWO Yj+1_b Yj+1 vdd! X11_b X11 X10_b X10 PPGi+12 PPGi+12_b PPGi+11 PPGi+11_b X9_b X9
+ X8_b X8 PPGi+10 PPGi+10_b PPGi+9 PPGi+9_b
+ ICV_4 $T=82095 70620 0 270 $X=92085 $Y=32190
X10 gnd! X8_b X8 ONE_b ONE TWO_b TWO Yj+1_b Yj+1 vdd! X7_b X7 X6_b X6 PPGi+8 PPGi+8_b PPGi+7 PPGi+7_b X5_b X5
+ X4_b X4 PPGi+6 PPGi+6_b PPGi+5 PPGi+5_b
+ ICV_4 $T=128565 70620 0 270 $X=138555 $Y=32190
X11 gnd! X4_b X4 ONE_b ONE TWO_b TWO Yj+1_b Yj+1 vdd! X3_b X3 X2_b X2 PPGi+4 PPGi+4_b PPGi+3 PPGi+3_b X1_b X1
+ X0_b X0 PPGi+2 PPGi+2_b PPGi+1 PPGi+1_b
+ ICV_4 $T=175035 70620 0 270 $X=185025 $Y=32190
.ENDS
***************************************
.SUBCKT PG_Blk !A A B !B gnd! vdd! !G G P !P
** N=10 EP=10 IP=16 FDC=38
X0 G !A !G !B gnd! vdd! B A SP_AND_DR $T=1500 3355 0 0 $X=1495 $Y=2960
X1 A P !A !P B gnd! vdd! !B SP_XOR_DR $T=1500 8640 0 0 $X=1500 $Y=8245
.ENDS
***************************************
.SUBCKT SP_XOR P !A B !B A gnd! vdd!
** N=11 EP=7 IP=5 FDC=12
M0 10 !B gnd! gnd! NMOS_VTL L=5e-08 W=1.8e-07 AD=2.52e-14 AS=2.025e-14 PD=6.4e-07 PS=5.85e-07 $X=675 $Y=110 $D=1
M1 1 A 10 gnd! NMOS_VTL L=5e-08 W=1.8e-07 AD=2.745e-14 AS=2.52e-14 PD=6.65e-07 PS=6.4e-07 $X=1055 $Y=110 $D=1
M2 11 !A 3 gnd! NMOS_VTL L=5e-08 W=1.8e-07 AD=2.52e-14 AS=2.745e-14 PD=6.4e-07 PS=6.65e-07 $X=2745 $Y=110 $D=1
M3 gnd! B 11 gnd! NMOS_VTL L=5e-08 W=1.8e-07 AD=2.025e-14 AS=2.52e-14 PD=5.85e-07 PS=6.4e-07 $X=3125 $Y=110 $D=1
M4 1 A vdd! vdd! PMOS_VTL L=5e-08 W=1.8e-07 AD=2.025e-14 AS=2.025e-14 PD=5.85e-07 PS=5.85e-07 $X=675 $Y=2740 $D=0
M5 vdd! P 1 vdd! PMOS_VTL L=5e-08 W=9e-08 AD=1.0125e-14 AS=1.0125e-14 PD=4.05e-07 PS=4.05e-07 $X=1495 $Y=2740 $D=0
M6 3 P vdd! vdd! PMOS_VTL L=5e-08 W=9e-08 AD=1.0125e-14 AS=1.0125e-14 PD=4.05e-07 PS=4.05e-07 $X=2305 $Y=2740 $D=0
M7 vdd! !A 3 vdd! PMOS_VTL L=5e-08 W=1.8e-07 AD=2.025e-14 AS=2.025e-14 PD=5.85e-07 PS=5.85e-07 $X=3125 $Y=2740 $D=0
X8 1 gnd! 3 P vdd! NAND2 $T=4925 470 0 0 $X=4475 $Y=-175
.ENDS
***************************************
.SUBCKT GREY_CELL !Gi-1 Gi-1 !Gi Gi !Pi Pi !G G gnd! vdd!
** N=15 EP=10 IP=9 FDC=18
M0 14 !Gi 7 gnd! NMOS_VTL L=5e-08 W=1.8e-07 AD=1.89e-14 AS=1.89e-14 PD=5.7e-07 PS=5.7e-07 $X=1045 $Y=110 $D=1
M1 14 !Gi-1 gnd! gnd! NMOS_VTL L=5e-08 W=1.8e-07 AD=2.52e-14 AS=1.89e-14 PD=6.4e-07 PS=5.7e-07 $X=1915 $Y=110 $D=1
M2 gnd! !Pi 14 gnd! NMOS_VTL L=5e-08 W=1.8e-07 AD=1.89e-14 AS=2.52e-14 PD=5.7e-07 PS=6.4e-07 $X=2295 $Y=110 $D=1
M3 gnd! Gi 9 gnd! NMOS_VTL L=5e-08 W=9e-08 AD=1.0125e-14 AS=1.0125e-14 PD=4.05e-07 PS=4.05e-07 $X=3125 $Y=110 $D=1
M4 15 Gi-1 gnd! gnd! NMOS_VTL L=5e-08 W=1.8e-07 AD=2.88e-14 AS=2.025e-14 PD=6.8e-07 PS=5.85e-07 $X=3935 $Y=110 $D=1
M5 11 Pi 15 gnd! NMOS_VTL L=5e-08 W=1.8e-07 AD=2.385e-14 AS=2.88e-14 PD=6.25e-07 PS=6.8e-07 $X=4355 $Y=110 $D=1
M6 7 !Gi vdd! vdd! PMOS_VTL L=5e-08 W=1.8e-07 AD=2.025e-14 AS=2.025e-14 PD=5.85e-07 PS=5.85e-07 $X=675 $Y=3505 $D=0
M7 vdd! !G 7 vdd! PMOS_VTL L=5e-08 W=9e-08 AD=1.0125e-14 AS=1.0125e-14 PD=4.05e-07 PS=4.05e-07 $X=1495 $Y=3505 $D=0
M8 9 Gi vdd! vdd! PMOS_VTL L=5e-08 W=1.8e-07 AD=2.025e-14 AS=2.025e-14 PD=5.85e-07 PS=5.85e-07 $X=2305 $Y=3505 $D=0
M9 vdd! G 9 vdd! PMOS_VTL L=5e-08 W=9e-08 AD=1.0125e-14 AS=1.0125e-14 PD=4.05e-07 PS=4.05e-07 $X=3125 $Y=3505 $D=0
M10 11 Pi vdd! vdd! PMOS_VTL L=5e-08 W=1.8e-07 AD=2.025e-14 AS=2.025e-14 PD=5.85e-07 PS=5.85e-07 $X=3935 $Y=3505 $D=0
M11 vdd! G 11 vdd! PMOS_VTL L=5e-08 W=9e-08 AD=1.0125e-14 AS=1.0125e-14 PD=4.05e-07 PS=4.05e-07 $X=4755 $Y=3505 $D=0
X12 9 gnd! 11 G vdd! NAND2 $T=6185 3040 0 0 $X=5735 $Y=2395
X13 7 gnd! vdd! !G INV $T=6605 120 0 0 $X=6155 $Y=-395
.ENDS
***************************************
.SUBCKT BLACK_CELL Pi-1 !Pi-1 Gi !Gi Pi !Pi !Gi-1 gnd! vdd! Gi-1 !G G !P P
** N=14 EP=14 IP=18 FDC=34
X0 P !Pi !P !Pi-1 gnd! vdd! Pi-1 Pi SP_AND_DR $T=15 10675 0 0 $X=10 $Y=10280
X1 !Gi-1 Gi-1 !Gi Gi !Pi Pi !G G gnd! vdd! GREY_CELL $T=15 5615 0 0 $X=0 $Y=5220
.ENDS
***************************************
.SUBCKT PPA_v1 OV gnd! vdd! GND_PC S31 A31 A31_b B31 B31_b S30 A30 A30_b B30 B30_b S29 A29 A29_b B29 B29_b S28
+ A28 A28_b B28 B28_b S27 A27 A27_b B27 B27_b S26 A26 A26_b B26 B26_b S25 A25 A25_b B25 B25_b S24
+ A24 A24_b B24 B24_b S23 A23 A23_b B23 B23_b S22 A22 A22_b B22 B22_b S21 A21 A21_b B21 B21_b S20
+ A20 A20_b B20 B20_b S19 A19 A19_b B19 B19_b S18 A18 A18_b B18 B18_b S17 A17 A17_b B17 B17_b S16
+ A16 A16_b B16 B16_b S15 A15 A15_b B15 B15_b S14 A14 A14_b B14 B14_b S13 A13 A13_b B13 B13_b S12
+ A12 A12_b B12 B12_b S11 A11 A11_b B11 B11_b S10 A10 A10_b B10 B10_b S9 A9 A9_b B9 B9_b S8
+ A8 A8_b B8 B8_b S7 A7 A7_b B7 B7_b S6 A6 A6_b B6 B6_b S5 A5 A5_b B5 B5_b S4
+ A4 A4_b B4 B4_b S3 A3 A3_b B3 B3_b S2 A2 A2_b B2 B2_b S1 A1 A1_b B1 B1_b VDD_PC
+ S0 A0 A0_b B0 B0_b
** N=745 EP=165 IP=2226 FDC=5490
X0 A31_b A31 B31 B31_b gnd! vdd! 640 632 166 167 PG_Blk $T=-115700 210235 1 270 $X=-128710 $Y=198830
X1 A30_b A30 B30 B30_b gnd! vdd! 186 181 173 177 PG_Blk $T=-101650 210235 1 270 $X=-114660 $Y=198830
X2 A29_b A29 B29 B29_b gnd! vdd! 206 201 193 197 PG_Blk $T=-87600 210235 1 270 $X=-100610 $Y=198830
X3 A28_b A28 B28 B28_b gnd! vdd! 226 221 213 217 PG_Blk $T=-73550 210235 1 270 $X=-86560 $Y=198830
X4 A27_b A27 B27 B27_b gnd! vdd! 246 241 233 237 PG_Blk $T=-59500 210235 1 270 $X=-72510 $Y=198830
X5 A26_b A26 B26 B26_b gnd! vdd! 265 260 252 256 PG_Blk $T=-45450 210235 1 270 $X=-58460 $Y=198830
X6 A25_b A25 B25 B25_b gnd! vdd! 286 281 273 277 PG_Blk $T=-31400 210235 1 270 $X=-44410 $Y=198830
X7 A24_b A24 B24 B24_b gnd! vdd! 306 301 293 297 PG_Blk $T=-17350 210235 1 270 $X=-30360 $Y=198830
X8 A23_b A23 B23 B23_b gnd! vdd! 326 321 313 317 PG_Blk $T=-3300 210235 1 270 $X=-16310 $Y=198830
X9 A22_b A22 B22 B22_b gnd! vdd! 345 340 332 336 PG_Blk $T=10750 210235 1 270 $X=-2260 $Y=198830
X10 A21_b A21 B21 B21_b gnd! vdd! 366 361 353 357 PG_Blk $T=24800 210235 1 270 $X=11790 $Y=198830
X11 A20_b A20 B20 B20_b gnd! vdd! 386 381 373 377 PG_Blk $T=38850 210235 1 270 $X=25840 $Y=198830
X12 A19_b A19 B19 B19_b gnd! vdd! 406 401 393 397 PG_Blk $T=52900 210235 1 270 $X=39890 $Y=198830
X13 A18_b A18 B18 B18_b gnd! vdd! 425 420 412 416 PG_Blk $T=66950 210235 1 270 $X=53940 $Y=198830
X14 A17_b A17 B17 B17_b gnd! vdd! 446 441 433 437 PG_Blk $T=81000 210235 1 270 $X=67990 $Y=198830
X15 A16_b A16 B16 B16_b gnd! vdd! 466 461 453 457 PG_Blk $T=95050 210235 1 270 $X=82040 $Y=198830
X16 A15_b A15 B15 B15_b gnd! vdd! 484 479 471 475 PG_Blk $T=109100 210235 1 270 $X=96090 $Y=198830
X17 A14_b A14 B14 B14_b gnd! vdd! 497 494 488 491 PG_Blk $T=123150 210235 1 270 $X=110140 $Y=198830
X18 A13_b A13 B13 B13_b gnd! vdd! 509 506 500 503 PG_Blk $T=137200 210235 1 270 $X=124190 $Y=198830
X19 A12_b A12 B12 B12_b gnd! vdd! 521 518 512 515 PG_Blk $T=151250 210235 1 270 $X=138240 $Y=198830
X20 A11_b A11 B11 B11_b gnd! vdd! 533 530 524 527 PG_Blk $T=165300 210235 1 270 $X=152290 $Y=198830
X21 A10_b A10 B10 B10_b gnd! vdd! 545 542 536 539 PG_Blk $T=179350 210235 1 270 $X=166340 $Y=198830
X22 A9_b A9 B9 B9_b gnd! vdd! 557 554 548 551 PG_Blk $T=193400 210235 1 270 $X=180390 $Y=198830
X23 A8_b A8 B8 B8_b gnd! vdd! 569 566 560 563 PG_Blk $T=207450 210235 1 270 $X=194440 $Y=198830
X24 A7_b A7 B7 B7_b gnd! vdd! 581 578 572 575 PG_Blk $T=221500 210235 1 270 $X=208490 $Y=198830
X25 A6_b A6 B6 B6_b gnd! vdd! 589 587 583 585 PG_Blk $T=235550 210235 1 270 $X=222540 $Y=198830
X26 A5_b A5 B5 B5_b gnd! vdd! 597 595 591 593 PG_Blk $T=249600 210235 1 270 $X=236590 $Y=198830
X27 A4_b A4 B4 B4_b gnd! vdd! 605 603 599 601 PG_Blk $T=263650 210235 1 270 $X=250640 $Y=198830
X28 A3_b A3 B3 B3_b gnd! vdd! 613 611 607 609 PG_Blk $T=277700 210235 1 270 $X=264690 $Y=198830
X29 A2_b A2 B2 B2_b gnd! vdd! 617 616 614 615 PG_Blk $T=291750 210235 1 270 $X=278740 $Y=198830
X30 A1_b A1 B1 B1_b gnd! vdd! 621 620 618 619 PG_Blk $T=305800 210235 1 270 $X=292790 $Y=198830
X31 A0_b A0 B0 B0_b gnd! vdd! 485 480 745 622 PG_Blk $T=319850 210235 1 270 $X=306840 $Y=198830
X32 S31 167 168 169 166 gnd! vdd! SP_XOR $T=-128585 36780 1 270 $X=-132190 $Y=30380
X33 S30 177 188 189 173 gnd! vdd! SP_XOR $T=-114580 36780 1 270 $X=-118185 $Y=30380
X34 S29 197 208 209 193 gnd! vdd! SP_XOR $T=-100530 36780 1 270 $X=-104135 $Y=30380
X35 S28 217 228 229 213 gnd! vdd! SP_XOR $T=-86480 36780 1 270 $X=-90085 $Y=30380
X36 S27 237 248 249 233 gnd! vdd! SP_XOR $T=-72430 36780 1 270 $X=-76035 $Y=30380
X37 S26 256 268 269 252 gnd! vdd! SP_XOR $T=-58380 36780 1 270 $X=-61985 $Y=30380
X38 S25 277 288 289 273 gnd! vdd! SP_XOR $T=-44330 36780 1 270 $X=-47935 $Y=30380
X39 S24 297 308 309 293 gnd! vdd! SP_XOR $T=-30280 36780 1 270 $X=-33885 $Y=30380
X40 S23 317 328 329 313 gnd! vdd! SP_XOR $T=-16230 36780 1 270 $X=-19835 $Y=30380
X41 S22 336 348 349 332 gnd! vdd! SP_XOR $T=-2180 36780 1 270 $X=-5785 $Y=30380
X42 S21 357 368 369 353 gnd! vdd! SP_XOR $T=11870 36780 1 270 $X=8265 $Y=30380
X43 S20 377 388 389 373 gnd! vdd! SP_XOR $T=25920 36780 1 270 $X=22315 $Y=30380
X44 S19 397 408 409 393 gnd! vdd! SP_XOR $T=39970 36780 1 270 $X=36365 $Y=30380
X45 S18 416 428 429 412 gnd! vdd! SP_XOR $T=54020 36780 1 270 $X=50415 $Y=30380
X46 S17 437 448 449 433 gnd! vdd! SP_XOR $T=68070 36780 1 270 $X=64465 $Y=30380
X47 S16 457 182 187 453 gnd! vdd! SP_XOR $T=82120 36780 1 270 $X=78515 $Y=30380
X48 S15 475 202 207 471 gnd! vdd! SP_XOR $T=96170 36780 1 270 $X=92565 $Y=30380
X49 S14 491 222 227 488 gnd! vdd! SP_XOR $T=110220 36780 1 270 $X=106615 $Y=30380
X50 S13 503 242 247 500 gnd! vdd! SP_XOR $T=124270 36780 1 270 $X=120665 $Y=30380
X51 S12 515 262 267 512 gnd! vdd! SP_XOR $T=138320 36780 1 270 $X=134715 $Y=30380
X52 S11 527 282 287 524 gnd! vdd! SP_XOR $T=152370 36780 1 270 $X=148765 $Y=30380
X53 S10 539 302 307 536 gnd! vdd! SP_XOR $T=166420 36780 1 270 $X=162815 $Y=30380
X54 S9 551 322 327 548 gnd! vdd! SP_XOR $T=180470 36780 1 270 $X=176865 $Y=30380
X55 S8 563 342 347 560 gnd! vdd! SP_XOR $T=194520 36780 1 270 $X=190915 $Y=30380
X56 S7 575 362 367 572 gnd! vdd! SP_XOR $T=208570 36780 1 270 $X=204965 $Y=30380
X57 S6 585 382 387 583 gnd! vdd! SP_XOR $T=222620 36780 1 270 $X=219015 $Y=30380
X58 S5 593 402 407 591 gnd! vdd! SP_XOR $T=236670 36780 1 270 $X=233065 $Y=30380
X59 S4 601 422 427 599 gnd! vdd! SP_XOR $T=250720 36780 1 270 $X=247115 $Y=30380
X60 S3 609 442 447 607 gnd! vdd! SP_XOR $T=264770 36780 1 270 $X=261165 $Y=30380
X61 S2 615 462 467 614 gnd! vdd! SP_XOR $T=278820 36780 1 270 $X=275215 $Y=30380
X62 S1 619 480 485 618 gnd! vdd! SP_XOR $T=295545 36780 1 270 $X=291940 $Y=30380
X63 S0 622 GND_PC VDD_PC 745 gnd! vdd! SP_XOR $T=309595 36780 1 270 $X=305990 $Y=30380
X64 187 182 636 635 634 633 gnd! OV gnd! vdd! GREY_CELL $T=-119165 54165 1 270 $X=-123535 $Y=45830
X65 207 202 653 652 651 650 169 168 gnd! vdd! GREY_CELL $T=-105115 54165 1 270 $X=-109485 $Y=45830
X66 227 222 666 665 664 663 189 188 gnd! vdd! GREY_CELL $T=-91065 54165 1 270 $X=-95435 $Y=45830
X67 247 242 678 677 676 675 209 208 gnd! vdd! GREY_CELL $T=-77015 54165 1 270 $X=-81385 $Y=45830
X68 267 262 687 686 685 684 229 228 gnd! vdd! GREY_CELL $T=-62965 54165 1 270 $X=-67335 $Y=45830
X69 287 282 695 694 693 692 249 248 gnd! vdd! GREY_CELL $T=-48915 54165 1 270 $X=-53285 $Y=45830
X70 307 302 703 702 701 700 269 268 gnd! vdd! GREY_CELL $T=-34865 54165 1 270 $X=-39235 $Y=45830
X71 327 322 711 710 709 708 289 288 gnd! vdd! GREY_CELL $T=-20815 54165 1 270 $X=-25185 $Y=45830
X72 347 342 716 715 714 713 309 308 gnd! vdd! GREY_CELL $T=-6765 54165 1 270 $X=-11135 $Y=45830
X73 367 362 720 719 718 717 329 328 gnd! vdd! GREY_CELL $T=7285 54165 1 270 $X=2915 $Y=45830
X74 387 382 724 723 722 721 349 348 gnd! vdd! GREY_CELL $T=21335 54165 1 270 $X=16965 $Y=45830
X75 407 402 728 727 726 725 369 368 gnd! vdd! GREY_CELL $T=35385 54165 1 270 $X=31015 $Y=45830
X76 427 422 732 731 730 729 389 388 gnd! vdd! GREY_CELL $T=49435 54165 1 270 $X=45065 $Y=45830
X77 447 442 736 735 734 733 409 408 gnd! vdd! GREY_CELL $T=63485 54165 1 270 $X=59115 $Y=45830
X78 467 462 740 739 738 737 429 428 gnd! vdd! GREY_CELL $T=77535 54165 1 270 $X=73165 $Y=45830
X79 485 480 744 743 742 741 449 448 gnd! vdd! GREY_CELL $T=91585 54165 1 270 $X=87215 $Y=45830
X80 347 342 343 338 334 330 187 182 gnd! vdd! GREY_CELL $T=105635 95560 1 270 $X=101265 $Y=87225
X81 367 362 363 358 354 350 207 202 gnd! vdd! GREY_CELL $T=119685 95560 1 270 $X=115315 $Y=87225
X82 387 382 383 378 374 370 227 222 gnd! vdd! GREY_CELL $T=133735 95560 1 270 $X=129365 $Y=87225
X83 407 402 403 398 394 390 247 242 gnd! vdd! GREY_CELL $T=147785 95560 1 270 $X=143415 $Y=87225
X84 427 422 423 418 414 410 267 262 gnd! vdd! GREY_CELL $T=161835 95560 1 270 $X=157465 $Y=87225
X85 447 442 443 438 434 430 287 282 gnd! vdd! GREY_CELL $T=175885 95560 1 270 $X=171515 $Y=87225
X86 467 462 463 458 454 450 307 302 gnd! vdd! GREY_CELL $T=189935 95560 1 270 $X=185565 $Y=87225
X87 485 480 481 476 472 468 327 322 gnd! vdd! GREY_CELL $T=203985 95560 1 270 $X=199615 $Y=87225
X88 427 422 543 540 537 534 347 342 gnd! vdd! GREY_CELL $T=218035 137105 1 270 $X=213665 $Y=128770
X89 447 442 555 552 549 546 367 362 gnd! vdd! GREY_CELL $T=232085 137105 1 270 $X=227715 $Y=128770
X90 467 462 567 564 561 558 387 382 gnd! vdd! GREY_CELL $T=246135 137105 1 270 $X=241765 $Y=128770
X91 485 480 579 576 573 570 407 402 gnd! vdd! GREY_CELL $T=260185 137105 1 270 $X=255815 $Y=128770
X92 467 462 604 602 600 598 427 422 gnd! vdd! GREY_CELL $T=274235 169410 1 270 $X=269865 $Y=161075
X93 485 480 612 610 608 606 447 442 gnd! vdd! GREY_CELL $T=288285 169410 1 270 $X=283915 $Y=161075
X94 485 480 621 620 619 618 467 462 gnd! vdd! GREY_CELL $T=302445 192410 1 270 $X=298075 $Y=184075
X95 170 174 629 637 623 626 183 gnd! vdd! 178 636 635 634 633 BLACK_CELL $T=-113550 93125 1 270 $X=-128595 $Y=84525
X96 171 175 630 638 624 627 184 gnd! vdd! 179 637 629 626 623 BLACK_CELL $T=-113550 134670 1 270 $X=-128595 $Y=126070
X97 172 176 631 639 625 628 185 gnd! vdd! 180 638 630 627 624 BLACK_CELL $T=-113550 166970 1 270 $X=-128595 $Y=158370
X98 173 177 632 640 166 167 186 gnd! vdd! 181 639 631 628 625 BLACK_CELL $T=-113550 189975 1 270 $X=-128595 $Y=181375
X99 190 194 647 654 641 644 203 gnd! vdd! 198 653 652 651 650 BLACK_CELL $T=-99500 93125 1 270 $X=-114545 $Y=84525
X100 191 195 648 655 642 645 204 gnd! vdd! 199 654 647 644 641 BLACK_CELL $T=-99500 134670 1 270 $X=-114545 $Y=126070
X101 192 196 649 656 643 646 205 gnd! vdd! 200 655 648 645 642 BLACK_CELL $T=-99500 166970 1 270 $X=-114545 $Y=158370
X102 193 197 181 186 173 177 206 gnd! vdd! 201 656 649 646 643 BLACK_CELL $T=-99500 189975 1 270 $X=-114545 $Y=181375
X103 210 214 661 667 657 659 223 gnd! vdd! 218 666 665 664 663 BLACK_CELL $T=-85450 93125 1 270 $X=-100495 $Y=84525
X104 211 215 662 668 658 660 224 gnd! vdd! 219 667 661 659 657 BLACK_CELL $T=-85450 134670 1 270 $X=-100495 $Y=126070
X105 212 216 180 185 172 176 225 gnd! vdd! 220 668 662 660 658 BLACK_CELL $T=-85450 166970 1 270 $X=-100495 $Y=158370
X106 213 217 201 206 193 197 226 gnd! vdd! 221 185 180 176 172 BLACK_CELL $T=-85450 189975 1 270 $X=-100495 $Y=181375
X107 230 234 673 679 669 671 243 gnd! vdd! 238 678 677 676 675 BLACK_CELL $T=-71400 93125 1 270 $X=-86445 $Y=84525
X108 231 235 674 680 670 672 244 gnd! vdd! 239 679 673 671 669 BLACK_CELL $T=-71400 134670 1 270 $X=-86445 $Y=126070
X109 232 236 200 205 192 196 245 gnd! vdd! 240 680 674 672 670 BLACK_CELL $T=-71400 166970 1 270 $X=-86445 $Y=158370
X110 233 237 221 226 213 217 246 gnd! vdd! 241 205 200 196 192 BLACK_CELL $T=-71400 189975 1 270 $X=-86445 $Y=181375
X111 250 254 683 688 681 682 263 gnd! vdd! 258 687 686 685 684 BLACK_CELL $T=-57350 93125 1 270 $X=-72395 $Y=84525
X112 251 255 179 184 171 175 264 gnd! vdd! 259 688 683 682 681 BLACK_CELL $T=-57350 134670 1 270 $X=-72395 $Y=126070
X113 253 257 220 225 212 216 266 gnd! vdd! 261 184 179 175 171 BLACK_CELL $T=-57350 166970 1 270 $X=-72395 $Y=158370
X114 252 256 241 246 233 237 265 gnd! vdd! 260 225 220 216 212 BLACK_CELL $T=-57350 189975 1 270 $X=-72395 $Y=181375
X115 270 274 691 696 689 690 283 gnd! vdd! 278 695 694 693 692 BLACK_CELL $T=-43300 93125 1 270 $X=-58345 $Y=84525
X116 271 275 199 204 191 195 284 gnd! vdd! 279 696 691 690 689 BLACK_CELL $T=-43300 134670 1 270 $X=-58345 $Y=126070
X117 272 276 240 245 232 236 285 gnd! vdd! 280 204 199 195 191 BLACK_CELL $T=-43300 166970 1 270 $X=-58345 $Y=158370
X118 273 277 260 265 252 256 286 gnd! vdd! 281 245 240 236 232 BLACK_CELL $T=-43300 189975 1 270 $X=-58345 $Y=181375
X119 290 294 699 704 697 698 303 gnd! vdd! 298 703 702 701 700 BLACK_CELL $T=-29250 93125 1 270 $X=-44295 $Y=84525
X120 291 295 219 224 211 215 304 gnd! vdd! 299 704 699 698 697 BLACK_CELL $T=-29250 134670 1 270 $X=-44295 $Y=126070
X121 292 296 261 266 253 257 305 gnd! vdd! 300 224 219 215 211 BLACK_CELL $T=-29250 166970 1 270 $X=-44295 $Y=158370
X122 293 297 281 286 273 277 306 gnd! vdd! 301 266 261 257 253 BLACK_CELL $T=-29250 189975 1 270 $X=-44295 $Y=181375
X123 310 314 707 712 705 706 323 gnd! vdd! 318 711 710 709 708 BLACK_CELL $T=-15200 93125 1 270 $X=-30245 $Y=84525
X124 311 315 239 244 231 235 324 gnd! vdd! 319 712 707 706 705 BLACK_CELL $T=-15200 134670 1 270 $X=-30245 $Y=126070
X125 312 316 280 285 272 276 325 gnd! vdd! 320 244 239 235 231 BLACK_CELL $T=-15200 166970 1 270 $X=-30245 $Y=158370
X126 313 317 301 306 293 297 326 gnd! vdd! 321 285 280 276 272 BLACK_CELL $T=-15200 189975 1 270 $X=-30245 $Y=181375
X127 330 334 178 183 170 174 343 gnd! vdd! 338 716 715 714 713 BLACK_CELL $T=-1150 93125 1 270 $X=-16195 $Y=84525
X128 331 335 259 264 251 255 344 gnd! vdd! 339 183 178 174 170 BLACK_CELL $T=-1150 134670 1 270 $X=-16195 $Y=126070
X129 333 337 300 305 292 296 346 gnd! vdd! 341 264 259 255 251 BLACK_CELL $T=-1150 166970 1 270 $X=-16195 $Y=158370
X130 332 336 321 326 313 317 345 gnd! vdd! 340 305 300 296 292 BLACK_CELL $T=-1150 189975 1 270 $X=-16195 $Y=181375
X131 350 354 198 203 190 194 363 gnd! vdd! 358 720 719 718 717 BLACK_CELL $T=12900 93125 1 270 $X=-2145 $Y=84525
X132 351 355 279 284 271 275 364 gnd! vdd! 359 203 198 194 190 BLACK_CELL $T=12900 134670 1 270 $X=-2145 $Y=126070
X133 352 356 320 325 312 316 365 gnd! vdd! 360 284 279 275 271 BLACK_CELL $T=12900 166970 1 270 $X=-2145 $Y=158370