** Generated for: hspiceD
** Generated on: Aug  3 20:09:55 2013
** Design library name: my
** Design cell name: MULT_16x16_test
** Design view name: schematic
.GLOBAL vdd!



.TRAN 1e-12 5000e-12 START=0.0 SWEEP DATA=D

.DATA D
+	X0_	X1_	X2_	X3_	X4_	X5_	X6_	X7_	X8_	X9_	X10_	X11_	X12_	X13_	X14_	X15_	Y0_	Y1_	Y2_	Y3_	Y4_	Y5_	Y6_	Y7_	Y8_	Y9_	Y10_	Y11_	Y12_	Y13_	Y14_	Y15_	!X0_	!X1_	!X2_	!X3_	!X4_	!X5_	!X6_	!X7_	!X8_	!X9_	!X10_	!X11_	!X12_	!X13_	!X14_	!X15_	!Y0_	!Y1_	!Y2_	!Y3_	!Y4_	!Y5_	!Y6_	!Y7_	!Y8_	!Y9_	!Y10_	!Y11_	!Y12_	!Y13_	!Y14_	!Y15_
**Dynamic Testing
+	1.1	0	0	0	1.1	0	0	0	0	0	0	1.1	0	0	0	1.1	1.1	0	0	0	1.1	1.1	1.1	1.1	1.1	0	1.1	0	0	1.1	1.1	1.1	0	1.1	1.1	1.1	0	1.1	1.1	1.1	1.1	1.1	1.1	0	1.1	1.1	1.1	0	0	1.1	1.1	1.1	0	0	0	0	0	1.1	0	1.1	1.1	0	0	0
+	0	0	1.1	1.1	1.1	0	1.1	1.1	1.1	0	1.1	0	0	1.1	0	1.1	1.1	1.1	1.1	1.1	0	1.1	0	1.1	1.1	0	0	0	0	1.1	0	0	1.1	1.1	0	0	0	1.1	0	0	0	1.1	0	1.1	1.1	0	1.1	0	0	0	0	0	1.1	0	1.1	0	0	1.1	1.1	1.1	1.1	0	1.1	1.1
+	1.1	1.1	0	0	1.1	0	0	1.1	0	1.1	1.1	0	1.1	0	0	0	1.1	1.1	0	1.1	0	1.1	0	1.1	1.1	1.1	0	1.1	0	1.1	1.1	0	0	0	1.1	1.1	0	1.1	1.1	0	1.1	0	0	1.1	0	1.1	1.1	1.1	0	0	1.1	0	1.1	0	1.1	0	0	0	1.1	0	1.1	0	0	1.1
+	1.1	0	0	0	0	0	0	1.1	0	0	0	0	1.1	0	0	1.1	0	1.1	0	1.1	0	1.1	0	0	1.1	0	1.1	1.1	0	1.1	1.1	1.1	0	1.1	1.1	1.1	1.1	1.1	1.1	0	1.1	1.1	1.1	1.1	0	1.1	1.1	0	1.1	0	1.1	0	1.1	0	1.1	1.1	0	1.1	0	0	1.1	0	0	0
+	0	1.1	0	1.1	0	0	1.1	1.1	1.1	0	1.1	0	1.1	0	1.1	0	0	0	0	1.1	1.1	1.1	1.1	0	0	0	0	0	0	1.1	0	1.1	1.1	0	1.1	0	1.1	1.1	0	0	0	1.1	0	1.1	0	1.1	0	1.1	1.1	1.1	1.1	0	0	0	0	1.1	1.1	1.1	1.1	1.1	1.1	0	1.1	0
+	0	1.1	0	1.1	0	0	1.1	0	0	1.1	1.1	0	1.1	0	1.1	0	1.1	0	1.1	1.1	0	0	1.1	0	0	1.1	0	0	1.1	1.1	0	0	1.1	0	1.1	0	1.1	1.1	0	1.1	1.1	0	0	1.1	0	1.1	0	1.1	0	1.1	0	0	1.1	1.1	0	1.1	1.1	0	1.1	1.1	0	0	1.1	1.1
+	0	0	0	0	0	1.1	0	0	0	0	1.1	1.1	1.1	0	1.1	0	1.1	1.1	0	0	0	1.1	1.1	1.1	0	1.1	1.1	1.1	0	1.1	0	1.1	1.1	1.1	1.1	1.1	1.1	0	1.1	1.1	1.1	1.1	0	0	0	1.1	0	1.1	0	0	1.1	1.1	1.1	0	0	0	1.1	0	0	0	1.1	0	1.1	0
+	1.1	0	1.1	0	1.1	1.1	1.1	0	0	0	1.1	0	0	0	0	1.1	0	1.1	1.1	1.1	0	0	0	1.1	1.1	1.1	1.1	0	0	0	0	0	0	1.1	0	1.1	0	0	0	1.1	1.1	1.1	0	1.1	1.1	1.1	1.1	0	1.1	0	0	0	1.1	1.1	1.1	0	0	0	0	1.1	1.1	1.1	1.1	1.1
+	0	1.1	1.1	1.1	1.1	1.1	1.1	1.1	0	0	1.1	1.1	1.1	0	0	0	1.1	0	0	1.1	0	0	0	1.1	1.1	1.1	0	1.1	0	0	0	0	1.1	0	0	0	0	0	0	0	1.1	1.1	0	0	0	1.1	1.1	1.1	0	1.1	1.1	0	1.1	1.1	1.1	0	0	0	1.1	0	1.1	1.1	1.1	1.1
+	0	0	1.1	1.1	0	0	1.1	0	0	0	0	0	1.1	1.1	0	0	1.1	1.1	0	1.1	1.1	0	0	0	1.1	1.1	0	1.1	1.1	0	1.1	0	1.1	1.1	0	0	1.1	1.1	0	1.1	1.1	1.1	1.1	1.1	0	0	1.1	1.1	0	0	1.1	0	0	1.1	1.1	1.1	0	0	1.1	0	0	1.1	0	1.1

**STATIC TESTING
+	1.1	1.1	1.1	0	0	0	1.1	0	0	1.1	1.1	0	0	0	1.1	1.1	0	1.1	0	1.1	1.1	1.1	1.1	0	0	1.1	0	0	0	0	1.1	1.1	1.1	1.1	1.1	0	0	0	1.1	0	0	1.1	1.1	0	0	0	1.1	1.1	0	1.1	0	1.1	1.1	1.1	1.1	0	0	1.1	0	0	0	0	1.1	1.1
+	1.1	1.1	0	1.1	0	0	0	1.1	1.1	0	0	0	1.1	0	0	0	1.1	1.1	1.1	1.1	1.1	1.1	1.1	1.1	1.1	1.1	0	0	0	1.1	0	0	1.1	1.1	0	1.1	0	0	0	1.1	1.1	0	0	0	1.1	0	0	0	1.1	1.1	1.1	1.1	1.1	1.1	1.1	1.1	1.1	1.1	0	0	0	1.1	0	0
+	1.1	1.1	0	0	1.1	0	0	0	1.1	1.1	1.1	1.1	1.1	1.1	1.1	1.1	1.1	0	1.1	0	1.1	0	0	1.1	1.1	0	1.1	1.1	0	1.1	1.1	1.1	1.1	1.1	0	0	1.1	0	0	0	1.1	1.1	1.1	1.1	1.1	1.1	1.1	1.1	1.1	0	1.1	0	1.1	0	0	1.1	1.1	0	1.1	1.1	0	1.1	1.1	1.1
+	0	0	1.1	0	1.1	1.1	1.1	1.1	0	0	1.1	0	1.1	0	0	1.1	0	0	1.1	1.1	0	0	0	0	1.1	1.1	0	1.1	0	0	0	1.1	0	0	1.1	0	1.1	1.1	1.1	1.1	0	0	1.1	0	1.1	0	0	1.1	0	0	1.1	1.1	0	0	0	0	1.1	1.1	0	1.1	0	0	0	1.1
+	1.1	0	1.1	1.1	0	0	0	0	1.1	1.1	0	0	0	0	0	1.1	1.1	0	0	0	0	1.1	1.1	1.1	0	0	0	1.1	1.1	0	1.1	1.1	1.1	0	1.1	1.1	0	0	0	0	1.1	1.1	0	0	0	0	0	1.1	1.1	0	0	0	0	1.1	1.1	1.1	0	0	0	1.1	1.1	0	1.1	1.1
+	0	1.1	0	1.1	0	1.1	1.1	0	0	1.1	1.1	1.1	1.1	1.1	1.1	0	1.1	0	0	0	0	0	0	0	1.1	0	1.1	0	1.1	0	0	1.1	0	1.1	0	1.1	0	1.1	1.1	0	0	1.1	1.1	1.1	1.1	1.1	1.1	0	1.1	0	0	0	0	0	0	0	1.1	0	1.1	0	1.1	0	0	1.1
+	0	1.1	0	0	0	0	1.1	1.1	0	1.1	1.1	0	1.1	1.1	0	0	1.1	0	0	1.1	0	0	0	1.1	1.1	1.1	0	1.1	1.1	0	0	0	0	1.1	0	0	0	0	1.1	1.1	0	1.1	1.1	0	1.1	1.1	0	0	1.1	0	0	1.1	0	0	0	1.1	1.1	1.1	0	1.1	1.1	0	0	0
+	0	1.1	0	0	0	1.1	0	0	0	0	1.1	1.1	0	1.1	1.1	0	0	0	1.1	1.1	1.1	1.1	1.1	0	0	0	1.1	1.1	1.1	1.1	1.1	0	0	1.1	0	0	0	1.1	0	0	0	0	1.1	1.1	0	1.1	1.1	0	0	0	1.1	1.1	1.1	1.1	1.1	0	0	0	1.1	1.1	1.1	1.1	1.1	0
+	1.1	0	1.1	1.1	1.1	1.1	1.1	1.1	1.1	1.1	0	0	0	1.1	1.1	0	0	1.1	1.1	1.1	1.1	0	1.1	0	0	1.1	0	1.1	0	1.1	1.1	0	1.1	0	1.1	1.1	1.1	1.1	1.1	1.1	1.1	1.1	0	0	0	1.1	1.1	0	0	1.1	1.1	1.1	1.1	0	1.1	0	0	1.1	0	1.1	0	1.1	1.1	0
+	0	0	0	1.1	1.1	0	0	0	0	1.1	0	1.1	0	1.1	0	1.1	0	0	1.1	1.1	1.1	0	0	1.1	1.1	1.1	0	1.1	1.1	0	0	1.1	0	0	0	1.1	1.1	0	0	0	0	1.1	0	1.1	0	1.1	0	1.1	0	0	1.1	1.1	1.1	0	0	1.1	1.1	1.1	0	1.1	1.1	0	0	1.1
.ENDDATA

.PRINT TRAN s0_out s1_out s2_out s3_out s4_out s5_out s6_out s7_out s8_out s9_out s10_out s11_out s12_out s13_out s14_out s15_out s16_out s17_out s18_out s19_out s20_out s21_out s22_out s23_out s24_out s25_out s26_out s27_out s28_out s29_out s30_out s31_out

.MEASURE TRAN s0_out MAX V(s0) FROM 1.4E-09 TO 1.45E-09
.MEASURE TRAN s1_out MAX V(s1) FROM 1.4E-09 TO 1.45E-09
.MEASURE TRAN s2_out MAX V(s2) FROM 1.4E-09 TO 1.45E-09
.MEASURE TRAN s3_out MAX V(s3) FROM 1.4E-09 TO 1.45E-09
.MEASURE TRAN s4_out MAX V(s4) FROM 1.4E-09 TO 1.45E-09
.MEASURE TRAN s5_out MAX V(s5) FROM 1.4E-09 TO 1.45E-09
.MEASURE TRAN s6_out MAX V(s6) FROM 1.4E-09 TO 1.45E-09
.MEASURE TRAN s7_out MAX V(s7) FROM 1.4E-09 TO 1.45E-09
.MEASURE TRAN s8_out MAX V(s8) FROM 1.4E-09 TO 1.45E-09
.MEASURE TRAN s9_out MAX V(s9) FROM 1.4E-09 TO 1.45E-09
.MEASURE TRAN s10_out MAX V(s10) FROM 1.4E-09 TO 1.45E-09
.MEASURE TRAN s11_out MAX V(s11) FROM 1.4E-09 TO 1.45E-09
.MEASURE TRAN s12_out MAX V(s12) FROM 1.4E-09 TO 1.45E-09
.MEASURE TRAN s13_out MAX V(s13) FROM 1.4E-09 TO 1.45E-09
.MEASURE TRAN s14_out MAX V(s14) FROM 1.4E-09 TO 1.45E-09
.MEASURE TRAN s15_out MAX V(s15) FROM 1.4E-09 TO 1.45E-09
.MEASURE TRAN s16_out MAX V(s16) FROM 1.4E-09 TO 1.45E-09
.MEASURE TRAN s17_out MAX V(s17) FROM 1.4E-09 TO 1.45E-09
.MEASURE TRAN s18_out MAX V(s18) FROM 1.4E-09 TO 1.45E-09
.MEASURE TRAN s19_out MAX V(s19) FROM 1.4E-09 TO 1.45E-09
.MEASURE TRAN s20_out MAX V(s20) FROM 1.4E-09 TO 1.45E-09
.MEASURE TRAN s21_out MAX V(s21) FROM 1.4E-09 TO 1.45E-09
.MEASURE TRAN s22_out MAX V(s22) FROM 1.4E-09 TO 1.45E-09
.MEASURE TRAN s23_out MAX V(s23) FROM 1.4E-09 TO 1.45E-09
.MEASURE TRAN s24_out MAX V(s24) FROM 1.4E-09 TO 1.45E-09
.MEASURE TRAN s25_out MAX V(s25) FROM 1.4E-09 TO 1.45E-09
.MEASURE TRAN s26_out MAX V(s26) FROM 1.4E-09 TO 1.45E-09
.MEASURE TRAN s27_out MAX V(s27) FROM 1.4E-09 TO 1.45E-09
.MEASURE TRAN s28_out MAX V(s28) FROM 1.4E-09 TO 1.45E-09
.MEASURE TRAN s29_out MAX V(s29) FROM 1.4E-09 TO 1.45E-09
.MEASURE TRAN s30_out MAX V(s30) FROM 1.4E-09 TO 1.45E-09
.MEASURE TRAN s31_out MAX V(s31) FROM 1.4E-09 TO 1.45E-09


.PRINT TRAN POWER
.MEASURE TRAN avgpwr AVG POWER FROM 0 to 5000e-12

.OP

.TEMP 25.0
.OPTION
+    ARTIST=2
+    INGOLD=2
+    PARHIER=LOCAL
+    PSF=2
+    POST
.INCLUDE "/apps/FreePDK45/ncsu_basekit/models/hspice/hspice_nom.include"

** Library name: my
** Cell name: INV
** View name: schematic
.subckt INV in out
m0 out in vdd! vdd! PMOS_VTL L=50e-9 W=180e-9 AD=18.9e-15 AS=18.9e-15 PD=390e-9 PS=390e-9 M=1
m1 out in 0 0 NMOS_VTL L=50e-9 W=90e-9 AD=9.45e-15 AS=9.45e-15 PD=300e-9 PS=300e-9 M=1
.ends INV
** End of subcircuit definition.

** Library name: my
** Cell name: NAND2
** View name: schematic
.subckt NAND2 a b out
m1 net16 b 0 0 NMOS_VTL L=50e-9 W=180e-9 AD=18.9e-15 AS=18.9e-15 PD=390e-9 PS=390e-9 M=1
m0 out a net16 0 NMOS_VTL L=50e-9 W=180e-9 AD=18.9e-15 AS=18.9e-15 PD=390e-9 PS=390e-9 M=1
m3 out b vdd! vdd! PMOS_VTL L=50e-9 W=180e-9 AD=18.9e-15 AS=18.9e-15 PD=390e-9 PS=390e-9 M=1
m2 out a vdd! vdd! PMOS_VTL L=50e-9 W=180e-9 AD=18.9e-15 AS=18.9e-15 PD=390e-9 PS=390e-9 M=1
.ends NAND2
** End of subcircuit definition.

** Library name: my
** Cell name: AND2
** View name: schematic
.subckt AND2 a b out
xi0 net7 out INV
xi1 a b net7 NAND2
.ends AND2
** End of subcircuit definition.

** Library name: my
** Cell name: PC_CTRL
** View name: schematic
.subckt PC_CTRL _net1 _net0 a a_ b b_ pc
xi1 b net17 INV
xi0 a net18 INV
xi5 pc net17 _net0 AND2
xi4 pc b b_ AND2
xi3 a pc a_ AND2
xi2 net18 pc _net1 AND2
.ends PC_CTRL
** End of subcircuit definition.

** Library name: my
** Cell name: SP_MAJ
** View name: schematic
.subckt SP_MAJ in0 in1 in2 out
m17 c2 in1 vdd! vdd! PMOS_VTL L=50e-9 W=180e-9 AD=18.9e-15 AS=18.9e-15 PD=390e-9 PS=390e-9 M=1
m14 c1 in0 vdd! vdd! PMOS_VTL L=50e-9 W=180e-9 AD=18.9e-15 AS=18.9e-15 PD=390e-9 PS=390e-9 M=1
m16 c2 out vdd! vdd! PMOS_VTL L=50e-9 W=90e-9 AD=9.45e-15 AS=9.45e-15 PD=300e-9 PS=300e-9 M=1
m15 c1 out vdd! vdd! PMOS_VTL L=50e-9 W=90e-9 AD=9.45e-15 AS=9.45e-15 PD=300e-9 PS=300e-9 M=1
m19 net08 in1 0 0 NMOS_VTL L=50e-9 W=180e-9 AD=18.9e-15 AS=18.9e-15 PD=390e-9 PS=390e-9 M=1
m22 net061 in2 0 0 NMOS_VTL L=50e-9 W=180e-9 AD=18.9e-15 AS=18.9e-15 PD=390e-9 PS=390e-9 M=1
m18 c1 in0 net08 0 NMOS_VTL L=50e-9 W=180e-9 AD=18.9e-15 AS=18.9e-15 PD=390e-9 PS=390e-9 M=1
m21 c2 in1 net061 0 NMOS_VTL L=50e-9 W=180e-9 AD=18.9e-15 AS=18.9e-15 PD=390e-9 PS=390e-9 M=1
m20 net08 in2 0 0 NMOS_VTL L=50e-9 W=180e-9 AD=18.9e-15 AS=18.9e-15 PD=390e-9 PS=390e-9 M=1
xi39 c2 c1 out NAND2
.ends SP_MAJ
** End of subcircuit definition.

** Library name: my
** Cell name: SP_MAJ_DR
** View name: schematic
.subckt SP_MAJ_DR a a_b b b_b c c_b co co_b
xi40 a b c co SP_MAJ
xi41 a_b b_b c_b co_b SP_MAJ
.ends SP_MAJ_DR
** End of subcircuit definition.

** Library name: my
** Cell name: SP_XOR3_DR
** View name: schematic
.subckt SP_XOR3_DR _net0 a a_b b b_b c c_b p
m12 p4 _net0 vdd! vdd! PMOS_VTL L=50e-9 W=90e-9 AD=9.45e-15 AS=9.45e-15 PD=300e-9 PS=300e-9 M=1
m11 p4 a vdd! vdd! PMOS_VTL L=50e-9 W=180e-9 AD=18.9e-15 AS=18.9e-15 PD=390e-9 PS=390e-9 M=1
m8 p2 p vdd! vdd! PMOS_VTL L=50e-9 W=90e-9 AD=9.45e-15 AS=9.45e-15 PD=300e-9 PS=300e-9 M=1
m7 p2 a_b vdd! vdd! PMOS_VTL L=50e-9 W=180e-9 AD=18.9e-15 AS=18.9e-15 PD=390e-9 PS=390e-9 M=1
m5 p3 _net0 vdd! vdd! PMOS_VTL L=50e-9 W=90e-9 AD=9.45e-15 AS=9.45e-15 PD=300e-9 PS=300e-9 M=1
m4 p3 a_b vdd! vdd! PMOS_VTL L=50e-9 W=180e-9 AD=18.9e-15 AS=18.9e-15 PD=390e-9 PS=390e-9 M=1
m1 p1 p vdd! vdd! PMOS_VTL L=50e-9 W=90e-9 AD=9.45e-15 AS=9.45e-15 PD=300e-9 PS=300e-9 M=1
m0 p1 a vdd! vdd! PMOS_VTL L=50e-9 W=180e-9 AD=18.9e-15 AS=18.9e-15 PD=390e-9 PS=390e-9 M=1
m20 net068 c 0 0 NMOS_VTL L=50e-9 W=270e-9 AD=28.35e-15 AS=28.35e-15 PD=480e-9 PS=480e-9 M=1
m19 net063 b_b net068 0 NMOS_VTL L=50e-9 W=270e-9 AD=28.35e-15 AS=28.35e-15 PD=480e-9 PS=480e-9 M=1
m16 net066 c 0 0 NMOS_VTL L=50e-9 W=270e-9 AD=28.35e-15 AS=28.35e-15 PD=480e-9 PS=480e-9 M=1
m15 net2 b net066 0 NMOS_VTL L=50e-9 W=270e-9 AD=28.35e-15 AS=28.35e-15 PD=480e-9 PS=480e-9 M=1
m18 net063 b net065 0 NMOS_VTL L=50e-9 W=270e-9 AD=28.35e-15 AS=28.35e-15 PD=480e-9 PS=480e-9 M=1
m14 net070 c_b 0 0 NMOS_VTL L=50e-9 W=270e-9 AD=28.35e-15 AS=28.35e-15 PD=480e-9 PS=480e-9 M=1
m13 p4 a net063 0 NMOS_VTL L=50e-9 W=270e-9 AD=28.35e-15 AS=28.35e-15 PD=480e-9 PS=480e-9 M=1
m17 net065 c_b 0 0 NMOS_VTL L=50e-9 W=270e-9 AD=28.35e-15 AS=28.35e-15 PD=480e-9 PS=480e-9 M=1
m9 p2 a_b net063 0 NMOS_VTL L=50e-9 W=270e-9 AD=28.35e-15 AS=28.35e-15 PD=480e-9 PS=480e-9 M=1
m6 p3 a_b net2 0 NMOS_VTL L=50e-9 W=270e-9 AD=28.35e-15 AS=28.35e-15 PD=480e-9 PS=480e-9 M=1
m3 net2 b_b net070 0 NMOS_VTL L=50e-9 W=270e-9 AD=28.35e-15 AS=28.35e-15 PD=480e-9 PS=480e-9 M=1
m2 p1 a net2 0 NMOS_VTL L=50e-9 W=270e-9 AD=28.35e-15 AS=28.35e-15 PD=480e-9 PS=480e-9 M=1
xi14 p4 p3 _net0 NAND2
xi13 p2 p1 p NAND2
.ends SP_XOR3_DR
** End of subcircuit definition.

** Library name: my
** Cell name: SP_FA_DR
** View name: schematic
.subckt SP_FA_DR a a_b b b_b c c_b co co_b s s_b
xi0 a a_b b b_b c c_b co co_b SP_MAJ_DR
xi1 s_b a a_b b b_b c c_b s SP_XOR3_DR
.ends SP_FA_DR
** End of subcircuit definition.

** Library name: my
** Cell name: SP_42CSA_DR
** View name: schematic
.subckt SP_42CSA_DR c1 c10 c10_b c11 c11_b c12 c12_b c13 c13_b c14 c14_b c15 c15_b c16 c16_b c17 c17_b c18 c18_b c19 c19_b c1_b c2 c20 c20_b c21 c21_b c22 c22_b c23 c23_b c24 c24_b c25 c25_b c26 c26_b c27 c27_b c28 c28_b c29 c29_b c2_b c3 c30 c30_b c31 c31_b c3_b c4 c4_b c5 c5_b c6 c6_b c7 c7_b c8 c8_b c9 c9_b s0 s0_b s1 s10 s10_b s11 s11_b s12 s12_b s13 s13_b s14 s14_b s15 s15_b s16 s16_b s17 s17_b s18 s18_b s19 s19_b s1_b s2 s20 s20_b s21 s21_b s22 s22_b s23 s23_b s24 s24_b s25 s25_b s26 s26_b s27 s27_b s28 s28_b s29 s29_b s2_b s3 s30 s30_b s31 s31_b s3_b s4 s4_b s5 s5_b s6 s6_b s7 s7_b s8 s8_b s9 s9_b w0 w0_b w1 w10 w10_b w11 w11_b w12 w12_b w13 w13_b w14 w14_b w15 w15_b w16 w16_b w17 w17_b w18 w18_b w19 w19_b w1_b w2 w20 w20_b w21 w21_b w22 w22_b w23 w23_b w24 w24_b w25 w25_b w26 w26_b w27 w27_b w28 w28_b w29 w29_b w2_b w3 w30 w30_b w31 w31_b w3_b w4 w4_b w5 w5_b w6 w6_b w7 w7_b w8 w8_b w9 w9_b x0 x0_b x1 x10 x10_b x11 x11_b x12 x12_b x13 x13_b x14 x14_b x15 x15_b x16 x16_b x17 x17_b x18 x18_b x19 x19_b
+x1_b x2 x20 x20_b x21 x21_b x22 x22_b x23 x23_b x24 x24_b x25 x25_b x26 x26_b x27 x27_b x28 x28_b x29 x29_b x2_b x3 x30 x30_b x31 x31_b x3_b x4 x4_b x5 x5_b x6 x6_b x7 x7_b x8 x8_b x9 x9_b y0 y0_b y1 y10 y10_b y11 y11_b y12 y12_b y13 y13_b y14 y14_b y15 y15_b y16 y16_b y17 y17_b y18 y18_b y19 y19_b y1_b y2 y20 y20_b y21 y21_b y22 y22_b y23 y23_b y24 y24_b y25 y25_b y26 y26_b y27 y27_b y28 y28_b y29 y29_b y2_b y3 y30 y30_b y31 y31_b y3_b y4 y4_b y5 y5_b y6 y6_b y7 y7_b y8 y8_b y9 y9_b z0 z0_b z1 z10 z10_b z11 z11_b z12 z12_b z13 z13_b z14 z14_b z15 z15_b z16 z16_b z17 z17_b z18 z18_b z19 z19_b z1_b z2 z20 z20_b z21 z21_b z22 z22_b z23 z23_b z24 z24_b z25 z25_b z26 z26_b z27 z27_b z28 z28_b z29 z29_b z2_b z3 z30 z30_b z31 z31_b z3_b z4 z4_b z5 z5_b z6 z6_b z7 z7_b z8 z8_b z9 z9_b
xi67 w31 w31_b x31 x31_b y31 y31_b 0 0 net0516 net0515 SP_FA_DR
xi66 net0516 net0515 z31 z31_b net0387 net0388 0 0 s31 s31_b SP_FA_DR
xi65 net0519 net0520 z29 z29_b net0395 net0396 c30 c30_b s29 s29_b SP_FA_DR
xi64 w29 w29_b x29 x29_b y29 y29_b net0391 net0392 net0519 net0520 SP_FA_DR
xi63 w30 w30_b x30 x30_b y30 y30_b net0387 net0388 net0517 net0518 SP_FA_DR
xi62 net0517 net0518 z30 z30_b net0391 net0392 c31 c31_b s30 s30_b SP_FA_DR
xi61 w28 w28_b x28 x28_b y28 y28_b net0395 net0396 net0521 net0522 SP_FA_DR
xi60 net0521 net0522 z28 z28_b net0399 net0400 c29 c29_b s28 s28_b SP_FA_DR
xi59 w27 w27_b x27 x27_b y27 y27_b net0399 net0400 net0523 net0524 SP_FA_DR
xi58 net0523 net0524 z27 z27_b net0403 net0404 c28 c28_b s27 s27_b SP_FA_DR
xi57 w26 w26_b x26 x26_b y26 y26_b net0403 net0404 net0525 net0526 SP_FA_DR
xi56 net0525 net0526 z26 z26_b net0407 net0408 c27 c27_b s26 s26_b SP_FA_DR
xi55 w25 w25_b x25 x25_b y25 y25_b net0407 net0408 net0527 net0528 SP_FA_DR
xi54 net0527 net0528 z25 z25_b net0411 net0412 c26 c26_b s25 s25_b SP_FA_DR
xi53 net0530 net0529 z19 z19_b net0435 net0436 c20 c20_b s19 s19_b SP_FA_DR
xi52 w19 w19_b x19 x19_b y19 y19_b net0431 net0432 net0530 net0529 SP_FA_DR
xi51 net0532 net0531 z20 z20_b net0431 net0432 c21 c21_b s20 s20_b SP_FA_DR
xi50 w20 w20_b x20 x20_b y20 y20_b net0427 net0428 net0532 net0531 SP_FA_DR
xi49 net0534 net0533 z21 z21_b net0427 net0428 c22 c22_b s21 s21_b SP_FA_DR
xi48 w21 w21_b x21 x21_b y21 y21_b net0423 net0424 net0534 net0533 SP_FA_DR
xi47 net0536 net0535 z22 z22_b net0423 net0424 c23 c23_b s22 s22_b SP_FA_DR
xi46 w22 w22_b x22 x22_b y22 y22_b net0419 net0420 net0536 net0535 SP_FA_DR
xi45 net0540 net0539 z24 z24_b net0415 net0416 c25 c25_b s24 s24_b SP_FA_DR
xi44 w24 w24_b x24 x24_b y24 y24_b net0411 net0412 net0540 net0539 SP_FA_DR
xi43 w23 w23_b x23 x23_b y23 y23_b net0415 net0416 net0538 net0537 SP_FA_DR
xi42 net0538 net0537 z23 z23_b net0419 net0420 c24 c24_b s23 s23_b SP_FA_DR
xi41 net0543 net0544 z17 z17_b net0443 net0444 c18 c18_b s17 s17_b SP_FA_DR
xi40 w17 w17_b x17 x17_b y17 y17_b net0439 net0440 net0543 net0544 SP_FA_DR
xi39 w18 w18_b x18 x18_b y18 y18_b net0435 net0436 net0541 net0542 SP_FA_DR
xi38 net0541 net0542 z18 z18_b net0439 net0440 c19 c19_b s18 s18_b SP_FA_DR
xi37 w16 w16_b x16 x16_b y16 y16_b net0443 net0444 net0545 net0546 SP_FA_DR
xi36 net0545 net0546 z16 z16_b net0447 net0448 c17 c17_b s16 s16_b SP_FA_DR
xi35 w15 w15_b x15 x15_b y15 y15_b net0447 net0448 net0547 net0548 SP_FA_DR
xi34 net0547 net0548 z15 z15_b net0451 net0452 c16 c16_b s15 s15_b SP_FA_DR
xi33 w14 w14_b x14 x14_b y14 y14_b net0451 net0452 net0549 net0550 SP_FA_DR
xi32 net0549 net0550 z14 z14_b net0455 net0456 c15 c15_b s14 s14_b SP_FA_DR
xi31 w13 w13_b x13 x13_b y13 y13_b net0455 net0456 net0551 net0552 SP_FA_DR
xi30 net0551 net0552 z13 z13_b net0459 net0460 c14 c14_b s13 s13_b SP_FA_DR
xi29 net0554 net0553 z7 z7_b net0483 net0484 c8 c8_b s7 s7_b SP_FA_DR
xi28 w7 w7_b x7 x7_b y7 y7_b net0479 net0480 net0554 net0553 SP_FA_DR
xi27 net0556 net0555 z8 z8_b net0479 net0480 c9 c9_b s8 s8_b SP_FA_DR
xi26 w8 w8_b x8 x8_b y8 y8_b net0475 net0476 net0556 net0555 SP_FA_DR
xi25 net0558 net0557 z9 z9_b net0475 net0476 c10 c10_b s9 s9_b SP_FA_DR
xi24 w9 w9_b x9 x9_b y9 y9_b net0471 net0472 net0558 net0557 SP_FA_DR
xi23 net0560 net0559 z10 z10_b net0471 net0472 c11 c11_b s10 s10_b SP_FA_DR
xi22 w10 w10_b x10 x10_b y10 y10_b net0467 net0468 net0560 net0559 SP_FA_DR
xi21 net0564 net0563 z12 z12_b net0463 net0464 c13 c13_b s12 s12_b SP_FA_DR
xi20 w12 w12_b x12 x12_b y12 y12_b net0459 net0460 net0564 net0563 SP_FA_DR
xi19 w11 w11_b x11 x11_b y11 y11_b net0463 net0464 net0562 net0561 SP_FA_DR
xi18 net0562 net0561 z11 z11_b net0467 net0468 c12 c12_b s11 s11_b SP_FA_DR
xi17 net0566 net0565 z6 z6_b net0487 net0488 c7 c7_b s6 s6_b SP_FA_DR
xi16 w6 w6_b x6 x6_b y6 y6_b net0483 net0484 net0566 net0565 SP_FA_DR
xi15 w5 w5_b x5 x5_b y5 y5_b net0487 net0488 net0567 net0568 SP_FA_DR
xi14 net0567 net0568 z5 z5_b net0491 net0492 c6 c6_b s5 s5_b SP_FA_DR
xi13 net0570 net0569 z3 z3_b net0499 net0500 c4 c4_b s3 s3_b SP_FA_DR
xi12 w3 w3_b x3 x3_b y3 y3_b net0495 net0496 net0570 net0569 SP_FA_DR
xi11 w4 w4_b x4 x4_b y4 y4_b net0491 net0492 net0571 net0572 SP_FA_DR
xi10 net0571 net0572 z4 z4_b net0495 net0496 c5 c5_b s4 s4_b SP_FA_DR
xi9 net0574 net0573 z2 z2_b net34 net33 c3 c3_b s2 s2_b SP_FA_DR
xi8 w2 w2_b x2 x2_b y2 y2_b net0499 net0500 net0574 net0573 SP_FA_DR
xi3 net24 net23 z1 z1_b net3 net4 c2 c2_b s1 s1_b SP_FA_DR
xi2 net20 net19 z0 z0_b 0 vdd! c1 c1_b s0 s0_b SP_FA_DR
xi1 w1 w1_b x1 x1_b y1 y1_b net34 net33 net24 net23 SP_FA_DR
xi0 w0 w0_b x0 x0_b y0 y0_b net3 net4 net20 net19 SP_FA_DR
.ends SP_42CSA_DR
** End of subcircuit definition.

** Library name: my
** Cell name: SP_XOR_DR
** View name: schematic
.subckt SP_XOR_DR _net1 _net2 _net0 a b p
m12 p4 _net0 vdd! vdd! PMOS_VTL L=50e-9 W=90e-9 AD=9.45e-15 AS=9.45e-15 PD=300e-9 PS=300e-9 M=1
m11 p4 a vdd! vdd! PMOS_VTL L=50e-9 W=180e-9 AD=18.9e-15 AS=18.9e-15 PD=390e-9 PS=390e-9 M=1
m8 p2 p vdd! vdd! PMOS_VTL L=50e-9 W=90e-9 AD=9.45e-15 AS=9.45e-15 PD=300e-9 PS=300e-9 M=1
m7 p2 _net1 vdd! vdd! PMOS_VTL L=50e-9 W=180e-9 AD=18.9e-15 AS=18.9e-15 PD=390e-9 PS=390e-9 M=1
m5 p3 _net0 vdd! vdd! PMOS_VTL L=50e-9 W=90e-9 AD=9.45e-15 AS=9.45e-15 PD=300e-9 PS=300e-9 M=1
m4 p3 _net1 vdd! vdd! PMOS_VTL L=50e-9 W=180e-9 AD=18.9e-15 AS=18.9e-15 PD=390e-9 PS=390e-9 M=1
m1 p1 p vdd! vdd! PMOS_VTL L=50e-9 W=90e-9 AD=9.45e-15 AS=9.45e-15 PD=300e-9 PS=300e-9 M=1
m0 p1 a vdd! vdd! PMOS_VTL L=50e-9 W=180e-9 AD=18.9e-15 AS=18.9e-15 PD=390e-9 PS=390e-9 M=1
m13 p4 a net033 0 NMOS_VTL L=50e-9 W=180e-9 AD=18.9e-15 AS=18.9e-15 PD=390e-9 PS=390e-9 M=1
m10 net033 b 0 0 NMOS_VTL L=50e-9 W=180e-9 AD=18.9e-15 AS=18.9e-15 PD=390e-9 PS=390e-9 M=1
m9 p2 _net1 net033 0 NMOS_VTL L=50e-9 W=180e-9 AD=18.9e-15 AS=18.9e-15 PD=390e-9 PS=390e-9 M=1
m6 p3 _net1 net2 0 NMOS_VTL L=50e-9 W=180e-9 AD=18.9e-15 AS=18.9e-15 PD=390e-9 PS=390e-9 M=1
m3 net2 _net2 0 0 NMOS_VTL L=50e-9 W=180e-9 AD=18.9e-15 AS=18.9e-15 PD=390e-9 PS=390e-9 M=1
m2 p1 a net2 0 NMOS_VTL L=50e-9 W=180e-9 AD=18.9e-15 AS=18.9e-15 PD=390e-9 PS=390e-9 M=1
xi14 p4 p3 _net0 NAND2
xi13 p2 p1 p NAND2
.ends SP_XOR_DR
** End of subcircuit definition.

** Library name: my
** Cell name: SP_AND_DR
** View name: schematic
.subckt SP_AND_DR a b out _net1 _net0 out_b
m10 o2 out_b vdd! vdd! PMOS_VTL L=50e-9 W=90e-9 AD=9.45e-15 AS=9.45e-15 PD=300e-9 PS=300e-9 M=1
m9 o2 _net0 vdd! vdd! PMOS_VTL L=50e-9 W=180e-9 AD=18.9e-15 AS=18.9e-15 PD=390e-9 PS=390e-9 M=1
m7 o1 out_b vdd! vdd! PMOS_VTL L=50e-9 W=90e-9 AD=9.45e-15 AS=9.45e-15 PD=300e-9 PS=300e-9 M=1
m6 o1 _net1 vdd! vdd! PMOS_VTL L=50e-9 W=180e-9 AD=18.9e-15 AS=18.9e-15 PD=390e-9 PS=390e-9 M=1
m1 net12 out vdd! vdd! PMOS_VTL L=50e-9 W=90e-9 AD=9.45e-15 AS=9.45e-15 PD=300e-9 PS=300e-9 M=1
m0 net12 a vdd! vdd! PMOS_VTL L=50e-9 W=180e-9 AD=18.9e-15 AS=18.9e-15 PD=390e-9 PS=390e-9 M=1
m5 o1 _net1 0 0 NMOS_VTL L=50e-9 W=90e-9 AD=9.45e-15 AS=9.45e-15 PD=300e-9 PS=300e-9 M=1
m8 o2 _net0 0 0 NMOS_VTL L=50e-9 W=90e-9 AD=9.45e-15 AS=9.45e-15 PD=300e-9 PS=300e-9 M=1
m3 net15 b 0 0 NMOS_VTL L=50e-9 W=180e-9 AD=18.9e-15 AS=18.9e-15 PD=390e-9 PS=390e-9 M=1
m2 net12 a net15 0 NMOS_VTL L=50e-9 W=180e-9 AD=18.9e-15 AS=18.9e-15 PD=390e-9 PS=390e-9 M=1
xi2 net12 out INV
xi7 o1 o2 out_b NAND2
.ends SP_AND_DR
** End of subcircuit definition.

** Library name: my
** Cell name: PG_Blk
** View name: schematic
.subckt PG_Blk _net0 _net1 _net2 a b g p _net3
xi0 _net0 _net1 _net2 a b p SP_XOR_DR
xi1 a b g _net0 _net1 _net3 SP_AND_DR
.ends PG_Blk
** End of subcircuit definition.

** Library name: my
** Cell name: GREY_CELL
** View name: schematic
.subckt GREY_CELL _net0 _net1 _net2 _net3 g gi _net4 pi
m13 net06 g vdd! vdd! PMOS_VTL L=50e-9 W=90e-9 AD=9.45e-15 AS=9.45e-15 PD=300e-9 PS=300e-9 M=1
m12 net06 gi vdd! vdd! PMOS_VTL L=50e-9 W=180e-9 AD=18.9e-15 AS=18.9e-15 PD=390e-9 PS=390e-9 M=1
m10 net019 _net0 vdd! vdd! PMOS_VTL L=50e-9 W=90e-9 AD=9.45e-15 AS=9.45e-15 PD=300e-9 PS=300e-9 M=1
m9 net019 _net1 vdd! vdd! PMOS_VTL L=50e-9 W=180e-9 AD=18.9e-15 AS=18.9e-15 PD=390e-9 PS=390e-9 M=1
m1 net12 g vdd! vdd! PMOS_VTL L=50e-9 W=90e-9 AD=9.45e-15 AS=9.45e-15 PD=300e-9 PS=300e-9 M=1
m0 net12 pi vdd! vdd! PMOS_VTL L=50e-9 W=180e-9 AD=18.9e-15 AS=18.9e-15 PD=390e-9 PS=390e-9 M=1
m11 net06 gi 0 0 NMOS_VTL L=50e-9 W=90e-9 AD=9.45e-15 AS=9.45e-15 PD=300e-9 PS=300e-9 M=1
m15 net011 _net2 0 0 NMOS_VTL L=50e-9 W=180e-9 AD=18.9e-15 AS=18.9e-15 PD=390e-9 PS=390e-9 M=1
m14 net011 _net3 0 0 NMOS_VTL L=50e-9 W=180e-9 AD=18.9e-15 AS=18.9e-15 PD=390e-9 PS=390e-9 M=1
m8 net019 _net1 net011 0 NMOS_VTL L=50e-9 W=180e-9 AD=18.9e-15 AS=18.9e-15 PD=390e-9 PS=390e-9 M=1
m3 net15 _net4 0 0 NMOS_VTL L=50e-9 W=180e-9 AD=18.9e-15 AS=18.9e-15 PD=390e-9 PS=390e-9 M=1
m2 net12 pi net15 0 NMOS_VTL L=50e-9 W=180e-9 AD=18.9e-15 AS=18.9e-15 PD=390e-9 PS=390e-9 M=1
xi13 net019 _net0 INV
xi10 net06 net12 g NAND2
.ends GREY_CELL
** End of subcircuit definition.

** Library name: my
** Cell name: BLACK_CELL
** View name: schematic
.subckt BLACK_CELL _net0 _net1 _net2 _net7 _net3 _net6 g gi _net4 p pi _net5
xi2 _net0 _net1 _net2 _net3 g gi _net4 pi GREY_CELL
xi1 pi _net5 p _net3 _net6 _net7 SP_AND_DR
.ends BLACK_CELL
** End of subcircuit definition.

** Library name: my
** Cell name: SP_XOR
** View name: schematic
.subckt SP_XOR _net0 _net1 a b p
m8 p2 p vdd! vdd! PMOS_VTL L=50e-9 W=90e-9 AD=9.45e-15 AS=9.45e-15 PD=300e-9 PS=300e-9 M=1
m7 p2 _net0 vdd! vdd! PMOS_VTL L=50e-9 W=180e-9 AD=18.9e-15 AS=18.9e-15 PD=390e-9 PS=390e-9 M=1
m1 p1 p vdd! vdd! PMOS_VTL L=50e-9 W=90e-9 AD=9.45e-15 AS=9.45e-15 PD=300e-9 PS=300e-9 M=1
m0 p1 a vdd! vdd! PMOS_VTL L=50e-9 W=180e-9 AD=18.9e-15 AS=18.9e-15 PD=390e-9 PS=390e-9 M=1
m10 net033 b 0 0 NMOS_VTL L=50e-9 W=180e-9 AD=18.9e-15 AS=18.9e-15 PD=390e-9 PS=390e-9 M=1
m9 p2 _net0 net033 0 NMOS_VTL L=50e-9 W=180e-9 AD=18.9e-15 AS=18.9e-15 PD=390e-9 PS=390e-9 M=1
m3 net2 _net1 0 0 NMOS_VTL L=50e-9 W=180e-9 AD=18.9e-15 AS=18.9e-15 PD=390e-9 PS=390e-9 M=1
m2 p1 a net2 0 NMOS_VTL L=50e-9 W=180e-9 AD=18.9e-15 AS=18.9e-15 PD=390e-9 PS=390e-9 M=1
xi13 p2 p1 p NAND2
.ends SP_XOR
** End of subcircuit definition.

** Library name: my
** Cell name: PPA
** View name: schematic
.subckt PPA a0 a0_b a1 a10 a10_b a11 a11_b a12 a12_b a13 a13_b a14 a14_b a15 a15_b a16 a16_b a17 a17_b a18 a18_b a19 a19_b a1_b a2 a20 a20_b a21 a21_b a22 a22_b a23 a23_b a24 a24_b a25 a25_b a26 a26_b a27 a27_b a28 a28_b a29 a29_b a2_b a3 a30 a30_b a31 a31_b a3_b a4 a4_b a5 a5_b a6 a6_b a7 a7_b a8 a8_b a9 a9_b b0 b0_b b1 b10 b10_b b11 b11_b b12 b12_b b13 b13_b b14 b14_b b15 b15_b b16 b16_b b17 b17_b b18 b18_b b19 b19_b b1_b b2 b20 b20_b b21 b21_b b22 b22_b b23 b23_b b24 b24_b b25 b25_b b26 b26_b b27 b27_b b28 b28_b b29 b29_b b2_b b3 b30 b30_b b31 b31_b b3_b b4 b4_b b5 b5_b b6 b6_b b7 b7_b b8 b8_b b9 b9_b ov s0 s1 s10 s11 s12 s13 s14 s15 s16 s17 s18 s19 s2 s20 s21 s22 s23 s24 s25 s26 s27 s28 s29 s3 s30 s31 s4 s5 s6 s7 s8 s9
xi43 a29_b b29_b net093 a29 b29 net0257 net0258 net092 PG_Blk
xi42 a28_b b28_b net097 a28 b28 net0261 net0262 net096 PG_Blk
xi41 a30_b b30_b net0101 a30 b30 net0265 net0266 net0100 PG_Blk
xi40 a31_b b31_b net0105 a31 b31 net0269 net0270 net0104 PG_Blk
xi39 a24_b b24_b net0109 a24 b24 net0273 net0274 net0108 PG_Blk
xi38 a25_b b25_b net0113 a25 b25 net0277 net0278 net0112 PG_Blk
xi37 a26_b b26_b net0117 a26 b26 net0281 net0282 net0116 PG_Blk
xi36 a27_b b27_b net0121 a27 b27 net0285 net0286 net0120 PG_Blk
xi35 a21_b b21_b net0125 a21 b21 net0289 net0290 net0124 PG_Blk
xi34 a20_b b20_b net0129 a20 b20 net0293 net0294 net0128 PG_Blk
xi33 a22_b b22_b net0133 a22 b22 net0297 net0298 net0132 PG_Blk
xi32 a23_b b23_b net0137 a23 b23 net0301 net0302 net0136 PG_Blk
xi31 a17_b b17_b net0141 a17 b17 net0305 net0306 net0140 PG_Blk
xi30 a16_b b16_b net0145 a16 b16 net0309 net0310 net0144 PG_Blk
xi29 a18_b b18_b net0149 a18 b18 net0313 net0314 net0148 PG_Blk
xi28 a19_b b19_b net0153 a19 b19 net0317 net0318 net0152 PG_Blk
xi27 a12_b b12_b net0157 a12 b12 net0321 net0322 net0156 PG_Blk
xi26 a13_b b13_b net0161 a13 b13 net0325 net0326 net0160 PG_Blk
xi25 a14_b b14_b net0165 a14 b14 net0329 net0330 net0164 PG_Blk
xi24 a15_b b15_b net0169 a15 b15 net0333 net0334 net0168 PG_Blk
xi23 a9_b b9_b net0173 a9 b9 net0337 net0338 net0172 PG_Blk
xi22 a8_b b8_b net0177 a8 b8 net0339 net0340 net0176 PG_Blk
xi21 a10_b b10_b net0181 a10 b10 net0341 net0342 net0180 PG_Blk
xi20 a11_b b11_b net0185 a11 b11 net0345 net0346 net0184 PG_Blk
xi19 a4_b b4_b net0189 a4 b4 net0349 net0350 net0188 PG_Blk
xi18 a5_b b5_b net0193 a5 b5 net0351 net0352 net0192 PG_Blk
xi17 a6_b b6_b net0197 a6 b6 net0353 net0354 net0196 PG_Blk
xi16 a7_b b7_b net0201 a7 b7 net0355 net0356 net0200 PG_Blk
xi3 a3_b b3_b net2 a3 b3 net90 net49 net1 PG_Blk
xi2 a2_b b2_b net38 a2 b2 net96 net03 net5 PG_Blk
xi1 a1_b b1_b net37 a1 b1 net82 net05 net9 PG_Blk
xi0 a0_b b0_b net14 a0 b0 net83 net07 net01524 PG_Blk
xi196 net01340 net01528 net01372 net01527 net0551 net01180 net01186 net01098 GREY_CELL
xi195 net01342 net01522 net01570 net01521 net0552 net01196 net01304 net01172 GREY_CELL
xi194 net01350 net01516 net01574 net01515 net0556 net01216 net0604 net01094 GREY_CELL
xi193 net01346 net01504 net01378 net01503 net0582 net01171 net01189 net01173 GREY_CELL
xi192 net01348 net01510 net01582 net01509 net0555 net01093 net01190 net01092 GREY_CELL
xi191 0 net01546 net01360 net01545 ov net01105 net0561 net01104 GREY_CELL
xi190 net01338 net01540 net01370 net01539 net0550 net01103 net0600 net01225 GREY_CELL
xi189 net01336 net01534 net01594 net01533 net0549 net01146 net01267 net01100 GREY_CELL
xi188 net01362 net01459 net01524 net01458 net0562 net0967 net83 net0966 GREY_CELL
xi187 net01364 net01490 net01262 net01489 net0563 net01143 net64 net01038 GREY_CELL
xi186 net01366 net01484 net01585 net01483 net0564 net01037 net0894 net01116 GREY_CELL
xi185 net01358 net01478 net01001 net01477 net0599 net01115 net068 net01034 GREY_CELL
xi184 net01356 net01454 net01388 net01453 net0593 net01027 net01275 net01154 GREY_CELL
xi183 net01354 net01133 net01184 net01139 net0558 net01106 net0892 net01028 GREY_CELL
xi182 net01352 net01466 net01384 net01465 net0557 net01117 net0573 net01091 GREY_CELL
xi181 net01344 net01472 net01376 net01471 net0609 net01097 net0569 net01032 GREY_CELL
xi164 net01372 net01266 net01388 net01265 net01186 net0996 net01275 net0995 GREY_CELL
xi163 net01370 net01272 net01184 net01271 net0600 net0925 net0892 net0924 GREY_CELL
xi162 net01360 net01284 net01376 net01283 net0561 net0980 net0569 net0961 GREY_CELL
xi161 net01594 net01278 net01384 net01277 net01267 net0927 net0573 net0926 GREY_CELL
xi160 net01570 net01290 net01001 net01289 net01304 net0931 net068 net0930 GREY_CELL
xi159 net01574 net01296 net01585 net01295 net0604 net0933 net0894 net0932 GREY_CELL
xi158 net01582 net01302 net01262 net01301 net01190 net01040 net64 net01009 GREY_CELL
xi157 net01378 net01308 net01524 net01307 net01189 net0969 net83 net0994 GREY_CELL
xi132 net01384 net0941 net01585 net0940 net0573 net0702 net0894 net0690 GREY_CELL
xi131 net01376 net0935 net01001 net0934 net0569 net0670 net068 net0692 GREY_CELL
xi130 net01388 net0953 net01524 net0952 net01275 net0580 net83 net0579 GREY_CELL
xi129 net01184 net0947 net01262 net0946 net0892 net0682 net64 net0681 GREY_CELL
xi6 net01001 net20 net01262 net19 net068 net86 net64 net78 GREY_CELL
xi5 net01585 net24 net01524 net35 net0894 net79 net83 net81 GREY_CELL
xi4 net01262 net9 net01524 net37 net64 net82 net83 net05 GREY_CELL
xi180 net01504 net01212 net01260 net01503 net01211 net01259 net01171 net0905 net0921 net01173 net0904 net01026 BLACK_CELL
xi179 net01510 net01206 net01254 net01509 net01205 net01253 net01093 net0903 net0919 net01092 net0902 net0997 BLACK_CELL
xi178 net01516 net01200 net01248 net01515 net01199 net01247 net01216 net0901 net0991 net01094 net0900 net01031 BLACK_CELL
xi177 net01522 net01194 net01242 net01521 net01193 net01241 net01196 net0899 net0915 net01172 net0898 net01033 BLACK_CELL
xi176 net01528 net01170 net01218 net01527 net01169 net01217 net01180 net0891 net0907 net01098 net0890 net0906 BLACK_CELL
xi175 net01534 net01182 net01230 net01533 net01181 net01229 net01146 net0895 net0975 net01100 net01022 net0984 BLACK_CELL
xi174 net01540 net01176 net01224 net01539 net01175 net01223 net01103 net0893 net0909 net01225 net01039 net0908 BLACK_CELL
xi173 net01546 net01188 net01236 net01545 net01187 net01235 net01105 net0897 net0913 net01104 net0896 net0912 BLACK_CELL